REMARK  2 active torsions:
REMARK  status: ('A' for Active; 'I' for Inactive)
REMARK    1  A    between atoms: C2_2  and  C7_10 
REMARK    2  A    between atoms: N1_11  and  N2_12 
REMARK       I    between atoms: N2_12  and  C_13 
ROOT
HETATM    1  N2  UNK A   2      -2.106  -0.653   0.064  1.00 -0.46    -0.033 NA
ATOM      2  C   SER A   1      -3.176   0.198  -0.040  1.00  0.55     0.376 C 
ATOM      3  CA  SER A   1      -4.433  -0.558   0.006  1.00  0.10     0.166 C 
ATOM      4  O   SER A   1      -3.182   1.410  -0.150  1.00 -0.52    -0.251 OA
ATOM      5  N   SER A   1      -5.444  -1.114   0.034  1.00 -0.27    -0.186 NA
ENDROOT
BRANCH   1   6
HETATM    6  N1  UNK A   2      -0.903  -0.155   0.026  1.00  0.07    -0.249 NA
HETATM    7  C7  UNK A   2       0.236   0.061   0.019  1.00  0.25     0.090 C 
BRANCH   7   8
HETATM    8  C2  UNK A   2       1.583   0.332   0.003  1.00 -0.41     0.110 A 
HETATM    9  C3  UNK A   2       2.642  -0.547  -0.041  1.00  0.15     0.017 A 
HETATM   10  C4  UNK A   2       3.875  -0.419  -0.049  1.00 -0.39     0.046 A 
HETATM   11  C5  UNK A   2       4.739   0.671  -0.015  1.00  0.45     0.237 A 
HETATM   12  O1  UNK A   2       5.924   0.840  -0.001  1.00 -0.43    -0.283 OA
HETATM   13  C6  UNK A   2       3.704   1.903   0.009  1.00  0.26     0.273 A 
HETATM   14  O2  UNK A   2       4.142   3.012  -0.007  1.00 -0.34    -0.280 OA
HETATM   15  C1  UNK A   2       2.128   1.688   0.042  1.00  0.43     0.247 A 
HETATM   16  O3  UNK A   2       1.464   2.692   0.098  1.00 -0.43    -0.282 OA
ENDBRANCH   7   8
ENDBRANCH   1   6
TORSDOF 2
