REMARK  4 active torsions:
REMARK  status: ('A' for Active; 'I' for Inactive)
REMARK    1  A    between atoms: N1_2  and  C1_8 
REMARK    2  A    between atoms: N3_4  and  C10_17 
REMARK    3  A    between atoms: N4_5  and  C10_17 
REMARK    4  A    between atoms: C4_11  and  C7_14 
ROOT
HETATM    1  O   HET A   1       8.069  -3.106   0.024  1.00  0.13    -0.283 OA
HETATM    2  C3  HET A   1       7.505  -2.123   0.014  1.00  0.54     0.239 C 
HETATM    3  C4  HET A   1       6.847  -0.902   0.002  1.00 -0.47     0.099 C 
HETATM    4  C10 HET A   1       5.488  -0.861   0.003  1.00  0.41     0.213 C 
ENDROOT
BRANCH   3   5
HETATM    5  C7  HET A   1       7.421   0.496  -0.011  1.00  0.52     0.085 C 
HETATM    6  N2  HET A   1       8.724   0.856  -0.010  1.00 -0.68    -0.297 N 
HETATM    7  C1  HET A   1      10.083   0.443  -0.013  1.00  0.61     0.200 A 
HETATM    8  C9  HET A   1       9.077   2.357  -0.005  1.00  0.74     0.147 A 
HETATM    9  C2  HET A   1      10.569   1.896   0.003  1.00 -0.19     0.077 A 
HETATM   10  C6  HET A   1      11.744   2.418   0.021  1.00 -0.50    -0.125 C 
HETATM   11  C8  HET A   1      12.931   3.037   0.041  1.00  0.71     0.081 C 
BRANCH   7  12
HETATM   12  N1  HET A   1      10.636  -0.742  -0.034  1.00 -0.75    -0.379 NA
HETATM   13  C5  HET A   1      11.428  -1.708  -0.056  1.00  0.82     0.198 C 
ENDBRANCH   7  12
ENDBRANCH   3   5
BRANCH   4  14
HETATM   14  N3  HET A   1       4.534  -2.037   0.017  1.00 -0.16    -0.106 NA
HETATM   15  N5  HET A   1       3.386  -1.623   0.014  1.00  0.17    -0.021 N 
ENDBRANCH   4  14
BRANCH   4  16
HETATM   16  N4  HET A   1       4.546   0.315  -0.008  1.00 -0.08    -0.106 NA
HETATM   17  N6  HET A   1       3.396  -0.094  -0.003  1.00  0.14    -0.021 N 
ENDBRANCH   4  16
TORSDOF 4
