MODEL 1
REMARK VINA RESULT:      -6.0      0.000      0.000
REMARK  2 active torsions:
REMARK  status: ('A' for Active; 'I' for Inactive)
REMARK    1  A    between atoms: C2_2  and  C7_10 
REMARK    2  A    between atoms: N1_11  and  N2_12 
REMARK       I    between atoms: N2_12  and  C_13 
ROOT
HETATM    1  N2  UNK A   2       6.234   1.801   7.525  1.00 -0.46    -0.033 NA
ATOM      2  C   SER A   1       5.229   2.064   6.630  1.00  0.55     0.376 C 
ATOM      3  CA  SER A   1       3.949   1.560   7.142  1.00  0.10     0.166 C 
ATOM      4  O   SER A   1       5.291   2.629   5.554  1.00 -0.52    -0.251 OA
ATOM      5  N   SER A   1       2.923   1.176   7.504  1.00 -0.27    -0.186 NA
ENDROOT
BRANCH   1   6
HETATM    6  N1  UNK A   2       7.449   2.166   7.228  1.00  0.07    -0.249 NA
HETATM    7  C7  UNK A   2       8.428   2.698   6.908  1.00  0.25     0.090 C 
BRANCH   7   8
HETATM    8  C2  UNK A   2       9.597   3.319   6.538  1.00 -0.41     0.110 A 
HETATM    9  C3  UNK A   2      10.463   2.994   5.518  1.00  0.15     0.017 A 
HETATM   10  C4  UNK A   2      11.532   3.467   5.105  1.00 -0.39     0.046 A 
HETATM   11  C5  UNK A   2      12.335   4.536   5.491  1.00  0.45     0.237 A 
HETATM   12  O1  UNK A   2      13.375   5.012   5.139  1.00 -0.43    -0.283 OA
HETATM   13  C6  UNK A   2      11.491   5.147   6.717  1.00  0.26     0.273 A 
HETATM   14  O2  UNK A   2      11.901   6.131   7.252  1.00 -0.34    -0.280 OA
HETATM   15  C1  UNK A   2      10.134   4.491   7.226  1.00  0.43     0.247 A 
HETATM   16  O3  UNK A   2       9.621   5.022   8.178  1.00 -0.43    -0.282 OA
ENDBRANCH   7   8
ENDBRANCH   1   6
TORSDOF 2
ENDMDL
MODEL 2
REMARK VINA RESULT:      -5.7      2.729      7.030
REMARK  2 active torsions:
REMARK  status: ('A' for Active; 'I' for Inactive)
REMARK    1  A    between atoms: C2_2  and  C7_10 
REMARK    2  A    between atoms: N1_11  and  N2_12 
REMARK       I    between atoms: N2_12  and  C_13 
ROOT
HETATM    1  N2  UNK A   2      10.290   2.963   5.327  1.00 -0.46    -0.033 NA
ATOM      2  C   SER A   1      11.229   3.844   5.799  1.00  0.55     0.376 C 
ATOM      3  CA  SER A   1      12.267   4.072   4.788  1.00  0.10     0.166 C 
ATOM      4  O   SER A   1      11.274   4.408   6.877  1.00 -0.52    -0.251 OA
ATOM      5  N   SER A   1      13.107   4.276   4.023  1.00 -0.27    -0.186 NA
ENDROOT
BRANCH   1   6
HETATM    6  N1  UNK A   2       9.297   2.630   6.100  1.00  0.07    -0.249 NA
HETATM    7  C7  UNK A   2       8.278   2.418   6.610  1.00  0.25     0.090 C 
BRANCH   7   8
HETATM    8  C2  UNK A   2       7.077   2.155   7.225  1.00 -0.41     0.110 A 
HETATM    9  C3  UNK A   2       6.760   1.148   8.110  1.00  0.15     0.017 A 
HETATM   10  C4  UNK A   2       5.728   0.814   8.709  1.00 -0.39     0.046 A 
HETATM   11  C5  UNK A   2       4.427   1.307   8.753  1.00  0.45     0.237 A 
HETATM   12  O1  UNK A   2       3.403   1.008   9.296  1.00 -0.43    -0.283 OA
HETATM   13  C6  UNK A   2       4.531   2.581   7.775  1.00  0.26     0.273 A 
HETATM   14  O2  UNK A   2       3.566   3.266   7.632  1.00 -0.34    -0.280 OA
HETATM   15  C1  UNK A   2       5.874   2.957   7.009  1.00  0.43     0.247 A 
HETATM   16  O3  UNK A   2       5.809   3.911   6.276  1.00 -0.43    -0.282 OA
ENDBRANCH   7   8
ENDBRANCH   1   6
TORSDOF 2
ENDMDL
MODEL 3
REMARK VINA RESULT:      -5.5      2.768      7.136
REMARK  2 active torsions:
REMARK  status: ('A' for Active; 'I' for Inactive)
REMARK    1  A    between atoms: C2_2  and  C7_10 
REMARK    2  A    between atoms: N1_11  and  N2_12 
REMARK       I    between atoms: N2_12  and  C_13 
ROOT
HETATM    1  N2  UNK A   2      10.078   2.777   5.505  1.00 -0.46    -0.033 NA
ATOM      2  C   SER A   1      10.895   3.797   5.922  1.00  0.55     0.376 C 
ATOM      3  CA  SER A   1      12.116   3.834   5.110  1.00  0.10     0.166 C 
ATOM      4  O   SER A   1      10.716   4.604   6.815  1.00 -0.52    -0.251 OA
ATOM      5  N   SER A   1      13.093   3.896   4.498  1.00 -0.27    -0.186 NA
ENDROOT
BRANCH   1   6
HETATM    6  N1  UNK A   2       8.949   2.584   6.126  1.00  0.07    -0.249 NA
HETATM    7  C7  UNK A   2       7.856   2.555   6.509  1.00  0.25     0.090 C 
BRANCH   7   8
HETATM    8  C2  UNK A   2       6.563   2.506   6.972  1.00 -0.41     0.110 A 
HETATM    9  C3  UNK A   2       5.504   3.333   6.670  1.00  0.15     0.017 A 
HETATM   10  C4  UNK A   2       4.319   3.389   7.029  1.00 -0.39     0.046 A 
HETATM   11  C5  UNK A   2       3.530   2.642   7.899  1.00  0.45     0.237 A 
HETATM   12  O1  UNK A   2       2.398   2.672   8.287  1.00 -0.43    -0.283 OA
HETATM   13  C6  UNK A   2       4.572   1.522   8.398  1.00  0.26     0.273 A 
HETATM   14  O2  UNK A   2       4.181   0.675   9.141  1.00 -0.34    -0.280 OA
HETATM   15  C1  UNK A   2       6.091   1.505   7.928  1.00  0.43     0.247 A 
HETATM   16  O3  UNK A   2       6.777   0.637   8.405  1.00 -0.43    -0.282 OA
ENDBRANCH   7   8
ENDBRANCH   1   6
TORSDOF 2
ENDMDL
MODEL 4
REMARK VINA RESULT:      -5.4      4.270      5.269
REMARK  2 active torsions:
REMARK  status: ('A' for Active; 'I' for Inactive)
REMARK    1  A    between atoms: C2_2  and  C7_10 
REMARK    2  A    between atoms: N1_11  and  N2_12 
REMARK       I    between atoms: N2_12  and  C_13 
ROOT
HETATM    1  N2  UNK A   2       8.179   7.754   7.977  1.00 -0.46    -0.033 NA
ATOM      2  C   SER A   1       8.238   9.032   7.484  1.00  0.55     0.376 C 
ATOM      3  CA  SER A   1       7.015   9.767   7.828  1.00  0.10     0.166 C 
ATOM      4  O   SER A   1       9.129   9.568   6.853  1.00 -0.52    -0.251 OA
ATOM      5  N   SER A   1       6.068  10.379   8.073  1.00 -0.27    -0.186 NA
ENDROOT
BRANCH   1   6
HETATM    6  N1  UNK A   2       9.178   6.949   7.753  1.00  0.07    -0.249 NA
HETATM    7  C7  UNK A   2      10.070   6.337   7.339  1.00  0.25     0.090 C 
BRANCH   7   8
HETATM    8  C2  UNK A   2      11.133   5.607   6.864  1.00 -0.41     0.110 A 
HETATM    9  C3  UNK A   2      12.470   5.938   6.843  1.00  0.15     0.017 A 
HETATM   10  C4  UNK A   2      13.496   5.373   6.437  1.00 -0.39     0.046 A 
HETATM   11  C5  UNK A   2      13.755   4.153   5.820  1.00  0.45     0.237 A 
HETATM   12  O1  UNK A   2      14.718   3.581   5.398  1.00 -0.43    -0.283 OA
HETATM   13  C6  UNK A   2      12.282   3.509   5.747  1.00  0.26     0.273 A 
HETATM   14  O2  UNK A   2      12.166   2.410   5.300  1.00 -0.34    -0.280 OA
HETATM   15  C1  UNK A   2      10.990   4.283   6.260  1.00  0.43     0.247 A 
HETATM   16  O3  UNK A   2       9.942   3.706   6.113  1.00 -0.43    -0.282 OA
ENDBRANCH   7   8
ENDBRANCH   1   6
TORSDOF 2
ENDMDL
MODEL 5
REMARK VINA RESULT:      -5.0      8.747     10.811
REMARK  2 active torsions:
REMARK  status: ('A' for Active; 'I' for Inactive)
REMARK    1  A    between atoms: C2_2  and  C7_10 
REMARK    2  A    between atoms: N1_11  and  N2_12 
REMARK       I    between atoms: N2_12  and  C_13 
ROOT
HETATM    1  N2  UNK A   2      11.345  12.324   5.857  1.00 -0.46    -0.033 NA
ATOM      2  C   SER A   1      11.289  11.215   5.053  1.00  0.55     0.376 C 
ATOM      3  CA  SER A   1      12.211  11.361   3.920  1.00  0.10     0.166 C 
ATOM      4  O   SER A   1      10.615  10.210   5.181  1.00 -0.52    -0.251 OA
ATOM      5  N   SER A   1      12.920  11.437   3.013  1.00 -0.27    -0.186 NA
ENDROOT
BRANCH   1   6
HETATM    6  N1  UNK A   2      10.578  12.375   6.909  1.00  0.07    -0.249 NA
HETATM    7  C7  UNK A   2       9.722  12.458   7.686  1.00  0.25     0.090 C 
BRANCH   7   8
HETATM    8  C2  UNK A   2       8.716  12.548   8.618  1.00 -0.41     0.110 A 
HETATM    9  C3  UNK A   2       8.443  13.569   9.500  1.00  0.15     0.017 A 
HETATM   10  C4  UNK A   2       7.586  13.751  10.377  1.00 -0.39     0.046 A 
HETATM   11  C5  UNK A   2       6.517  13.003  10.861  1.00  0.45     0.237 A 
HETATM   12  O1  UNK A   2       5.683  13.129  11.710  1.00 -0.43    -0.283 OA
HETATM   13  C6  UNK A   2       6.589  11.695   9.927  1.00  0.26     0.273 A 
HETATM   14  O2  UNK A   2       5.754  10.854  10.063  1.00 -0.34    -0.280 OA
HETATM   15  C1  UNK A   2       7.724  11.495   8.830  1.00  0.43     0.247 A 
HETATM   16  O3  UNK A   2       7.689  10.454   8.224  1.00 -0.43    -0.282 OA
ENDBRANCH   7   8
ENDBRANCH   1   6
TORSDOF 2
ENDMDL
MODEL 6
REMARK VINA RESULT:      -4.7      9.385     11.279
REMARK  2 active torsions:
REMARK  status: ('A' for Active; 'I' for Inactive)
REMARK    1  A    between atoms: C2_2  and  C7_10 
REMARK    2  A    between atoms: N1_11  and  N2_12 
REMARK       I    between atoms: N2_12  and  C_13 
ROOT
HETATM    1  N2  UNK A   2       8.773  -7.044   7.217  1.00 -0.46    -0.033 NA
ATOM      2  C   SER A   1      10.051  -7.518   7.369  1.00  0.55     0.376 C 
ATOM      3  CA  SER A   1      10.506  -8.159   6.130  1.00  0.10     0.166 C 
ATOM      4  O   SER A   1      10.778  -7.458   8.343  1.00 -0.52    -0.251 OA
ATOM      5  N   SER A   1      10.902  -8.676   5.177  1.00 -0.27    -0.186 NA
ENDROOT
BRANCH   1   6
HETATM    6  N1  UNK A   2       8.199  -6.455   8.226  1.00  0.07    -0.249 NA
HETATM    7  C7  UNK A   2       7.492  -5.938   8.987  1.00  0.25     0.090 C 
BRANCH   7   8
HETATM    8  C2  UNK A   2       6.666  -5.330   9.901  1.00 -0.41     0.110 A 
HETATM    9  C3  UNK A   2       6.349  -5.730  11.180  1.00  0.15     0.017 A 
HETATM   10  C4  UNK A   2       5.621  -5.275  12.075  1.00 -0.39     0.046 A 
HETATM   11  C5  UNK A   2       4.799  -4.158  12.185  1.00  0.45     0.237 A 
HETATM   12  O1  UNK A   2       4.070  -3.694  13.013  1.00 -0.43    -0.283 OA
HETATM   13  C6  UNK A   2       5.019  -3.453  10.755  1.00  0.26     0.273 A 
HETATM   14  O2  UNK A   2       4.471  -2.415  10.544  1.00 -0.34    -0.280 OA
HETATM   15  C1  UNK A   2       5.946  -4.088   9.628  1.00  0.43     0.247 A 
HETATM   16  O3  UNK A   2       5.995  -3.482   8.588  1.00 -0.43    -0.282 OA
ENDBRANCH   7   8
ENDBRANCH   1   6
TORSDOF 2
ENDMDL
MODEL 7
REMARK VINA RESULT:      -4.5      4.980      7.396
REMARK  2 active torsions:
REMARK  status: ('A' for Active; 'I' for Inactive)
REMARK    1  A    between atoms: C2_2  and  C7_10 
REMARK    2  A    between atoms: N1_11  and  N2_12 
REMARK       I    between atoms: N2_12  and  C_13 
ROOT
HETATM    1  N2  UNK A   2       4.839  -3.389  10.618  1.00 -0.46    -0.033 NA
ATOM      2  C   SER A   1       5.806  -4.335  10.395  1.00  0.55     0.376 C 
ATOM      3  CA  SER A   1       5.505  -5.557  11.149  1.00  0.10     0.166 C 
ATOM      4  O   SER A   1       6.796  -4.266   9.690  1.00 -0.52    -0.251 OA
ATOM      5  N   SER A   1       5.308  -6.536  11.728  1.00 -0.27    -0.186 NA
ENDROOT
BRANCH   1   6
HETATM    6  N1  UNK A   2       4.952  -2.228  10.038  1.00  0.07    -0.249 NA
HETATM    7  C7  UNK A   2       5.067  -1.324   9.322  1.00  0.25     0.090 C 
BRANCH   7   8
HETATM    8  C2  UNK A   2       5.197  -0.242   8.485  1.00 -0.41     0.110 A 
HETATM    9  C3  UNK A   2       6.200   0.700   8.438  1.00  0.15     0.017 A 
HETATM   10  C4  UNK A   2       6.412   1.706   7.745  1.00 -0.39     0.046 A 
HETATM   11  C5  UNK A   2       5.730   2.333   6.707  1.00  0.45     0.237 A 
HETATM   12  O1  UNK A   2       5.885   3.308   6.029  1.00 -0.43    -0.283 OA
HETATM   13  C6  UNK A   2       4.458   1.365   6.525  1.00  0.26     0.273 A 
HETATM   14  O2  UNK A   2       3.679   1.609   5.656  1.00 -0.34    -0.280 OA
HETATM   15  C1  UNK A   2       4.216   0.096   7.455  1.00  0.43     0.247 A 
HETATM   16  O3  UNK A   2       3.205  -0.524   7.241  1.00 -0.43    -0.282 OA
ENDBRANCH   7   8
ENDBRANCH   1   6
TORSDOF 2
ENDMDL
MODEL 8
REMARK VINA RESULT:      -4.4      8.142     10.403
REMARK  2 active torsions:
REMARK  status: ('A' for Active; 'I' for Inactive)
REMARK    1  A    between atoms: C2_2  and  C7_10 
REMARK    2  A    between atoms: N1_11  and  N2_12 
REMARK       I    between atoms: N2_12  and  C_13 
ROOT
HETATM    1  N2  UNK A   2       9.228  11.462   7.909  1.00 -0.46    -0.033 NA
ATOM      2  C   SER A   1       9.669  12.727   8.204  1.00  0.55     0.376 C 
ATOM      3  CA  SER A   1      10.949  12.989   7.536  1.00  0.10     0.166 C 
ATOM      4  O   SER A   1       9.143  13.578   8.898  1.00 -0.52    -0.251 OA
ATOM      5  N   SER A   1      11.958  13.234   7.032  1.00 -0.27    -0.186 NA
ENDROOT
BRANCH   1   6
HETATM    6  N1  UNK A   2       8.108  11.051   8.431  1.00  0.07    -0.249 NA
HETATM    7  C7  UNK A   2       7.235  10.486   8.943  1.00  0.25     0.090 C 
BRANCH   7   8
HETATM    8  C2  UNK A   2       6.193   9.831   9.553  1.00 -0.41     0.110 A 
HETATM    9  C3  UNK A   2       5.889   9.748  10.893  1.00  0.15     0.017 A 
HETATM   10  C4  UNK A   2       4.997   9.187  11.547  1.00 -0.39     0.046 A 
HETATM   11  C5  UNK A   2       3.905   8.390  11.216  1.00  0.45     0.237 A 
HETATM   12  O1  UNK A   2       3.037   7.817  11.809  1.00 -0.43    -0.283 OA
HETATM   13  C6  UNK A   2       4.009   8.349   9.611  1.00  0.26     0.273 A 
HETATM   14  O2  UNK A   2       3.165   7.766   9.003  1.00 -0.34    -0.280 OA
HETATM   15  C1  UNK A   2       5.187   9.065   8.818  1.00  0.43     0.247 A 
HETATM   16  O3  UNK A   2       5.173   8.926   7.621  1.00 -0.43    -0.282 OA
ENDBRANCH   7   8
ENDBRANCH   1   6
TORSDOF 2
ENDMDL
MODEL 9
REMARK VINA RESULT:      -4.3      6.197      8.172
REMARK  2 active torsions:
REMARK  status: ('A' for Active; 'I' for Inactive)
REMARK    1  A    between atoms: C2_2  and  C7_10 
REMARK    2  A    between atoms: N1_11  and  N2_12 
REMARK       I    between atoms: N2_12  and  C_13 
ROOT
HETATM    1  N2  UNK A   2       9.405   6.369   7.816  1.00 -0.46    -0.033 NA
ATOM      2  C   SER A   1      10.634   6.533   7.231  1.00  0.55     0.376 C 
ATOM      3  CA  SER A   1      11.438   5.316   7.386  1.00  0.10     0.166 C 
ATOM      4  O   SER A   1      11.077   7.502   6.642  1.00 -0.52    -0.251 OA
ATOM      5  N   SER A   1      12.106   4.380   7.489  1.00 -0.27    -0.186 NA
ENDROOT
BRANCH   1   6
HETATM    6  N1  UNK A   2       8.559   7.359   7.789  1.00  0.07    -0.249 NA
HETATM    7  C7  UNK A   2       7.642   8.068   7.772  1.00  0.25     0.090 C 
BRANCH   7   8
HETATM    8  C2  UNK A   2       6.565   8.921   7.758  1.00 -0.41     0.110 A 
HETATM    9  C3  UNK A   2       5.776   9.300   6.695  1.00  0.15     0.017 A 
HETATM   10  C4  UNK A   2       4.802  10.057   6.565  1.00 -0.39     0.046 A 
HETATM   11  C5  UNK A   2       4.074  10.862   7.435  1.00  0.45     0.237 A 
HETATM   12  O1  UNK A   2       3.149  11.617   7.351  1.00 -0.43    -0.283 OA
HETATM   13  C6  UNK A   2       4.808  10.568   8.837  1.00  0.26     0.273 A 
HETATM   14  O2  UNK A   2       4.379  11.087   9.821  1.00 -0.34    -0.280 OA
HETATM   15  C1  UNK A   2       6.070   9.606   8.950  1.00  0.43     0.247 A 
HETATM   16  O3  UNK A   2       6.550   9.501  10.050  1.00 -0.43    -0.282 OA
ENDBRANCH   7   8
ENDBRANCH   1   6
TORSDOF 2
ENDMDL
