MODEL 1
REMARK VINA RESULT:      -4.4      0.000      0.000
REMARK  7 active torsions:
REMARK  status: ('A' for Active; 'I' for Inactive)
REMARK    1  A    between atoms: O3_3  and  N3_6 
REMARK    2  A    between atoms: N2_5  and  C4_11 
REMARK    3  A    between atoms: C1_8  and  C3_10 
REMARK    4  A    between atoms: C1_8  and  C2_9 
REMARK    5  A    between atoms: C1_8  and  C5_12 
REMARK    6  A    between atoms: C2_9  and  C7_14 
REMARK    7  A    between atoms: C3_10  and  CA_15 
ROOT
ATOM      1  N1  UNK A   1       2.945   1.844   9.013  1.00 -0.64    -0.391 NA
ATOM      2  CA  UNK A   1       4.051   2.592   9.031  1.00  0.35     0.204 C 
ATOM      3  C8  UNK A   1       1.933   1.199   9.149  1.00  0.45     0.196 C 
ENDROOT
BRANCH   2   4
ATOM      4  C3  UNK A   1       4.907   2.559   7.794  1.00  0.31     0.243 C 
ATOM      5  O1  UNK A   1       4.611   3.191   6.812  1.00 -0.37    -0.282 OA
BRANCH   4   6
ATOM      6  C1  UNK A   1       6.023   1.568   7.788  1.00 -0.35     0.126 C 
BRANCH   6   7
ATOM      7  C2  UNK A   1       5.894   0.372   8.350  1.00  0.46    -0.045 C 
BRANCH   7   8
ATOM      8  C7  UNK A   1       5.762  -0.739   8.929  1.00 -0.58    -0.013 C 
ATOM      9  C6  UNK A   1       5.615  -1.883   9.525  1.00  0.63     0.284 C 
ATOM     10  O2  UNK A   1       5.502  -2.906  10.043  1.00 -0.18    -0.273 OA
ENDBRANCH   7   8
ENDBRANCH   6   7
BRANCH   6  11
ATOM     11  C5  UNK A   1       7.213   1.982   7.198  1.00  0.13    -0.027 C 
ATOM     12  C4  UNK A   1       8.268   2.317   6.685  1.00 -0.10     0.066 C 
BRANCH  12  13
ATOM     13  N2  UNK A   1       9.357   2.803   6.076  1.00 -0.01    -0.071 NA
ATOM     14  N3  UNK A   1      10.140   3.679   6.342  1.00  0.10     0.002 NA
BRANCH  14  15
ATOM     15  O3  UNK A   1       9.901   4.390   7.574  1.00 -0.20    -0.114 OA
ATOM     16  C9  UNK A   1      10.714   5.422   7.664  1.00  0.27     0.256 C 
ATOM     17  N4  UNK A   1      11.380   6.354   7.826  1.00 -0.27    -0.162 NA
ENDBRANCH  14  15
ENDBRANCH  12  13
ENDBRANCH   6  11
ENDBRANCH   4   6
ENDBRANCH   2   4
TORSDOF 7
ENDMDL
MODEL 2
REMARK VINA RESULT:      -4.1      9.103     11.808
REMARK  7 active torsions:
REMARK  status: ('A' for Active; 'I' for Inactive)
REMARK    1  A    between atoms: O3_3  and  N3_6 
REMARK    2  A    between atoms: N2_5  and  C4_11 
REMARK    3  A    between atoms: C1_8  and  C3_10 
REMARK    4  A    between atoms: C1_8  and  C2_9 
REMARK    5  A    between atoms: C1_8  and  C5_12 
REMARK    6  A    between atoms: C2_9  and  C7_14 
REMARK    7  A    between atoms: C3_10  and  CA_15 
ROOT
ATOM      1  N1  UNK A   1       7.168  12.905  12.426  1.00 -0.64    -0.391 NA
ATOM      2  CA  UNK A   1       6.753  13.023  11.162  1.00  0.35     0.204 C 
ATOM      3  C8  UNK A   1       7.394  12.773  13.605  1.00  0.45     0.196 C 
ENDROOT
BRANCH   2   4
ATOM      4  C3  UNK A   1       7.761  13.528  10.166  1.00  0.31     0.243 C 
ATOM      5  O1  UNK A   1       8.051  14.696  10.108  1.00 -0.37    -0.282 OA
BRANCH   4   6
ATOM      6  C1  UNK A   1       8.233  12.547   9.146  1.00 -0.35     0.126 C 
BRANCH   6   7
ATOM      7  C2  UNK A   1       9.386  12.709   8.506  1.00  0.46    -0.045 C 
BRANCH   7   8
ATOM      8  C7  UNK A   1      10.482  12.911   7.919  1.00 -0.58    -0.013 C 
ATOM      9  C6  UNK A   1      11.616  13.111   7.322  1.00  0.63     0.284 C 
ATOM     10  O2  UNK A   1      12.613  13.291   6.772  1.00 -0.18    -0.273 OA
ENDBRANCH   7   8
ENDBRANCH   6   7
BRANCH   6  11
ATOM     11  C5  UNK A   1       7.382  11.480   8.875  1.00  0.13    -0.027 C 
ATOM     12  C4  UNK A   1       6.613  10.564   8.636  1.00 -0.10     0.066 C 
BRANCH  12  13
ATOM     13  N2  UNK A   1       5.886   9.477   8.349  1.00 -0.01    -0.071 NA
ATOM     14  N3  UNK A   1       4.919   9.280   7.657  1.00  0.10     0.002 NA
BRANCH  14  15
ATOM     15  O3  UNK A   1       4.390  10.429   6.964  1.00 -0.20    -0.114 OA
ATOM     16  C9  UNK A   1       3.300  10.096   6.305  1.00  0.27     0.256 C 
ATOM     17  N4  UNK A   1       2.332   9.899   5.702  1.00 -0.27    -0.162 NA
ENDBRANCH  14  15
ENDBRANCH  12  13
ENDBRANCH   6  11
ENDBRANCH   4   6
ENDBRANCH   2   4
TORSDOF 7
ENDMDL
MODEL 3
REMARK VINA RESULT:      -4.0      3.555      6.819
REMARK  7 active torsions:
REMARK  status: ('A' for Active; 'I' for Inactive)
REMARK    1  A    between atoms: O3_3  and  N3_6 
REMARK    2  A    between atoms: N2_5  and  C4_11 
REMARK    3  A    between atoms: C1_8  and  C3_10 
REMARK    4  A    between atoms: C1_8  and  C2_9 
REMARK    5  A    between atoms: C1_8  and  C5_12 
REMARK    6  A    between atoms: C2_9  and  C7_14 
REMARK    7  A    between atoms: C3_10  and  CA_15 
ROOT
ATOM      1  N1  UNK A   1       3.592   3.235   9.443  1.00 -0.64    -0.391 NA
ATOM      2  CA  UNK A   1       4.249   2.523   8.524  1.00  0.35     0.204 C 
ATOM      3  C8  UNK A   1       3.035   4.004  10.189  1.00  0.45     0.196 C 
ENDROOT
BRANCH   2   4
ATOM      4  C3  UNK A   1       4.496   1.074   8.845  1.00  0.31     0.243 C 
ATOM      5  O1  UNK A   1       3.692   0.424   9.463  1.00 -0.37    -0.282 OA
BRANCH   4   6
ATOM      6  C1  UNK A   1       5.855   0.547   8.524  1.00 -0.35     0.126 C 
BRANCH   6   7
ATOM      7  C2  UNK A   1       6.795   1.323   7.996  1.00  0.46    -0.045 C 
BRANCH   7   8
ATOM      8  C7  UNK A   1       7.702   2.019   7.466  1.00 -0.58    -0.013 C 
ATOM      9  C6  UNK A   1       8.630   2.744   6.921  1.00  0.63     0.284 C 
ATOM     10  O2  UNK A   1       9.469   3.378   6.449  1.00 -0.18    -0.273 OA
ENDBRANCH   7   8
ENDBRANCH   6   7
BRANCH   6  11
ATOM     11  C5  UNK A   1       6.067  -0.806   8.769  1.00  0.13    -0.027 C 
ATOM     12  C4  UNK A   1       6.237  -1.999   8.959  1.00 -0.10     0.066 C 
BRANCH  12  13
ATOM     13  N2  UNK A   1       6.526  -3.271   9.263  1.00 -0.01    -0.071 NA
ATOM     14  N3  UNK A   1       6.212  -4.003  10.166  1.00  0.10     0.002 NA
BRANCH  14  15
ATOM     15  O3  UNK A   1       5.334  -3.442  11.162  1.00 -0.20    -0.114 OA
ATOM     16  C9  UNK A   1       4.486  -4.357  11.584  1.00  0.27     0.256 C 
ATOM     17  N4  UNK A   1       3.709  -5.095  12.020  1.00 -0.27    -0.162 NA
ENDBRANCH  14  15
ENDBRANCH  12  13
ENDBRANCH   6  11
ENDBRANCH   4   6
ENDBRANCH   2   4
TORSDOF 7
ENDMDL
MODEL 4
REMARK VINA RESULT:      -4.0      1.818      3.624
REMARK  7 active torsions:
REMARK  status: ('A' for Active; 'I' for Inactive)
REMARK    1  A    between atoms: O3_3  and  N3_6 
REMARK    2  A    between atoms: N2_5  and  C4_11 
REMARK    3  A    between atoms: C1_8  and  C3_10 
REMARK    4  A    between atoms: C1_8  and  C2_9 
REMARK    5  A    between atoms: C1_8  and  C5_12 
REMARK    6  A    between atoms: C2_9  and  C7_14 
REMARK    7  A    between atoms: C3_10  and  CA_15 
ROOT
ATOM      1  N1  UNK A   1       2.609   0.205   8.782  1.00 -0.64    -0.391 NA
ATOM      2  CA  UNK A   1       3.914   0.424   8.957  1.00  0.35     0.204 C 
ATOM      3  C8  UNK A   1       1.424  -0.030   8.775  1.00  0.45     0.196 C 
ENDROOT
BRANCH   2   4
ATOM      4  C3  UNK A   1       4.735   0.636   7.714  1.00  0.31     0.243 C 
ATOM      5  O1  UNK A   1       5.152  -0.295   7.074  1.00 -0.37    -0.282 OA
BRANCH   4   6
ATOM      6  C1  UNK A   1       5.154   2.040   7.429  1.00 -0.35     0.126 C 
BRANCH   6   7
ATOM      7  C2  UNK A   1       4.309   3.057   7.552  1.00  0.46    -0.045 C 
BRANCH   7   8
ATOM      8  C7  UNK A   1       3.539   4.043   7.703  1.00 -0.58    -0.013 C 
ATOM      9  C6  UNK A   1       2.748   5.061   7.849  1.00  0.63     0.284 C 
ATOM     10  O2  UNK A   1       2.032   5.953   7.991  1.00 -0.18    -0.273 OA
ENDBRANCH   7   8
ENDBRANCH   6   7
BRANCH   6  11
ATOM     11  C5  UNK A   1       6.463   2.216   6.991  1.00  0.13    -0.027 C 
ATOM     12  C4  UNK A   1       7.607   2.348   6.588  1.00 -0.10     0.066 C 
BRANCH  12  13
ATOM     13  N2  UNK A   1       8.862   2.622   6.210  1.00 -0.01    -0.071 NA
ATOM     14  N3  UNK A   1       9.666   3.458   6.535  1.00  0.10     0.002 NA
BRANCH  14  15
ATOM     15  O3  UNK A   1       9.237   4.391   7.547  1.00 -0.20    -0.114 OA
ATOM     16  C9  UNK A   1      10.179   5.286   7.764  1.00  0.27     0.256 C 
ATOM     17  N4  UNK A   1      10.943   6.117   8.017  1.00 -0.27    -0.162 NA
ENDBRANCH  14  15
ENDBRANCH  12  13
ENDBRANCH   6  11
ENDBRANCH   4   6
ENDBRANCH   2   4
TORSDOF 7
ENDMDL
MODEL 5
REMARK VINA RESULT:      -4.0      5.221      8.110
REMARK  7 active torsions:
REMARK  status: ('A' for Active; 'I' for Inactive)
REMARK    1  A    between atoms: O3_3  and  N3_6 
REMARK    2  A    between atoms: N2_5  and  C4_11 
REMARK    3  A    between atoms: C1_8  and  C3_10 
REMARK    4  A    between atoms: C1_8  and  C2_9 
REMARK    5  A    between atoms: C1_8  and  C5_12 
REMARK    6  A    between atoms: C2_9  and  C7_14 
REMARK    7  A    between atoms: C3_10  and  CA_15 
ROOT
ATOM      1  N1  UNK A   1       4.540  -7.570  11.164  1.00 -0.64    -0.391 NA
ATOM      2  CA  UNK A   1       4.732  -6.347  10.663  1.00  0.35     0.204 C 
ATOM      3  C8  UNK A   1       4.215  -8.654  11.587  1.00  0.45     0.196 C 
ENDROOT
BRANCH   2   4
ATOM      4  C3  UNK A   1       6.100  -5.750  10.850  1.00  0.31     0.243 C 
ATOM      5  O1  UNK A   1       6.599  -5.662  11.943  1.00 -0.37    -0.282 OA
BRANCH   4   6
ATOM      6  C1  UNK A   1       6.713  -5.110   9.649  1.00 -0.35     0.126 C 
BRANCH   6   7
ATOM      7  C2  UNK A   1       7.527  -5.782   8.842  1.00  0.46    -0.045 C 
BRANCH   7   8
ATOM      8  C7  UNK A   1       8.337  -6.385   8.089  1.00 -0.58    -0.013 C 
ATOM      9  C6  UNK A   1       9.171  -6.998   7.306  1.00  0.63     0.284 C 
ATOM     10  O2  UNK A   1       9.923  -7.550   6.628  1.00 -0.18    -0.273 OA
ENDBRANCH   7   8
ENDBRANCH   6   7
BRANCH   6  11
ATOM     11  C5  UNK A   1       6.418  -3.766   9.447  1.00  0.13    -0.027 C 
ATOM     12  C4  UNK A   1       6.131  -2.593   9.273  1.00 -0.10     0.066 C 
BRANCH  12  13
ATOM     13  N2  UNK A   1       5.955  -1.277   9.099  1.00 -0.01    -0.071 NA
ATOM     14  N3  UNK A   1       5.522  -0.607   8.196  1.00  0.10     0.002 NA
BRANCH  14  15
ATOM     15  O3  UNK A   1       5.079  -1.326   7.028  1.00 -0.20    -0.114 OA
ATOM     16  C9  UNK A   1       3.935  -0.834   6.602  1.00  0.27     0.256 C 
ATOM     17  N4  UNK A   1       2.935  -0.464   6.151  1.00 -0.27    -0.162 NA
ENDBRANCH  14  15
ENDBRANCH  12  13
ENDBRANCH   6  11
ENDBRANCH   4   6
ENDBRANCH   2   4
TORSDOF 7
ENDMDL
MODEL 6
REMARK VINA RESULT:      -4.0      3.537      6.316
REMARK  7 active torsions:
REMARK  status: ('A' for Active; 'I' for Inactive)
REMARK    1  A    between atoms: O3_3  and  N3_6 
REMARK    2  A    between atoms: N2_5  and  C4_11 
REMARK    3  A    between atoms: C1_8  and  C3_10 
REMARK    4  A    between atoms: C1_8  and  C2_9 
REMARK    5  A    between atoms: C1_8  and  C5_12 
REMARK    6  A    between atoms: C2_9  and  C7_14 
REMARK    7  A    between atoms: C3_10  and  CA_15 
ROOT
ATOM      1  N1  UNK A   1       3.197   2.404   8.906  1.00 -0.64    -0.391 NA
ATOM      2  CA  UNK A   1       3.744   1.988   7.761  1.00  0.35     0.204 C 
ATOM      3  C8  UNK A   1       2.577   2.698   9.900  1.00  0.45     0.196 C 
ENDROOT
BRANCH   2   4
ATOM      4  C3  UNK A   1       5.036   2.643   7.355  1.00  0.31     0.243 C 
ATOM      5  O1  UNK A   1       5.047   3.706   6.788  1.00 -0.37    -0.282 OA
BRANCH   4   6
ATOM      6  C1  UNK A   1       6.273   1.825   7.521  1.00 -0.35     0.126 C 
BRANCH   6   7
ATOM      7  C2  UNK A   1       7.440   2.220   7.023  1.00  0.46    -0.045 C 
BRANCH   7   8
ATOM      8  C7  UNK A   1       8.553   2.546   6.531  1.00 -0.58    -0.013 C 
ATOM      9  C6  UNK A   1       9.697   2.892   6.026  1.00  0.63     0.284 C 
ATOM     10  O2  UNK A   1      10.722   3.182   5.587  1.00 -0.18    -0.273 OA
ENDBRANCH   7   8
ENDBRANCH   6   7
BRANCH   6  11
ATOM     11  C5  UNK A   1       6.128   0.613   8.188  1.00  0.13    -0.027 C 
ATOM     12  C4  UNK A   1       5.990  -0.463   8.748  1.00 -0.10     0.066 C 
BRANCH  12  13
ATOM     13  N2  UNK A   1       5.917  -1.588   9.470  1.00 -0.01    -0.071 NA
ATOM     14  N3  UNK A   1       5.570  -2.715   9.223  1.00  0.10     0.002 NA
BRANCH  14  15
ATOM     15  O3  UNK A   1       5.133  -2.963   7.872  1.00 -0.20    -0.114 OA
ATOM     16  C9  UNK A   1       5.345  -4.223   7.553  1.00  0.27     0.256 C 
ATOM     17  N4  UNK A   1       5.486  -5.312   7.187  1.00 -0.27    -0.162 NA
ENDBRANCH  14  15
ENDBRANCH  12  13
ENDBRANCH   6  11
ENDBRANCH   4   6
ENDBRANCH   2   4
TORSDOF 7
ENDMDL
MODEL 7
REMARK VINA RESULT:      -3.9      6.355      8.648
REMARK  7 active torsions:
REMARK  status: ('A' for Active; 'I' for Inactive)
REMARK    1  A    between atoms: O3_3  and  N3_6 
REMARK    2  A    between atoms: N2_5  and  C4_11 
REMARK    3  A    between atoms: C1_8  and  C3_10 
REMARK    4  A    between atoms: C1_8  and  C2_9 
REMARK    5  A    between atoms: C1_8  and  C5_12 
REMARK    6  A    between atoms: C2_9  and  C7_14 
REMARK    7  A    between atoms: C3_10  and  CA_15 
ROOT
ATOM      1  N1  UNK A   1       4.210  -4.020  12.457  1.00 -0.64    -0.391 NA
ATOM      2  CA  UNK A   1       5.475  -4.171  12.055  1.00  0.35     0.204 C 
ATOM      3  C8  UNK A   1       3.124  -3.792  12.932  1.00  0.45     0.196 C 
ENDROOT
BRANCH   2   4
ATOM      4  C3  UNK A   1       5.730  -5.229  11.015  1.00  0.31     0.243 C 
ATOM      5  O1  UNK A   1       5.645  -6.401  11.282  1.00 -0.37    -0.282 OA
BRANCH   4   6
ATOM      6  C1  UNK A   1       6.269  -4.755   9.707  1.00 -0.35     0.126 C 
BRANCH   6   7
ATOM      7  C2  UNK A   1       6.282  -3.466   9.386  1.00  0.46    -0.045 C 
BRANCH   7   8
ATOM      8  C7  UNK A   1       6.270  -2.233   9.127  1.00 -0.58    -0.013 C 
ATOM      9  C6  UNK A   1       6.265  -0.965   8.852  1.00  0.63     0.284 C 
ATOM     10  O2  UNK A   1       6.239   0.162   8.610  1.00 -0.18    -0.273 OA
ENDBRANCH   7   8
ENDBRANCH   6   7
BRANCH   6  11
ATOM     11  C5  UNK A   1       6.716  -5.738   8.830  1.00  0.13    -0.027 C 
ATOM     12  C4  UNK A   1       7.083  -6.616   8.067  1.00 -0.10     0.066 C 
BRANCH  12  13
ATOM     13  N2  UNK A   1       7.586  -7.486   7.182  1.00 -0.01    -0.071 NA
ATOM     14  N3  UNK A   1       8.686  -7.668   6.726  1.00  0.10     0.002 NA
BRANCH  14  15
ATOM     15  O3  UNK A   1       9.724  -6.788   7.202  1.00 -0.20    -0.114 OA
ATOM     16  C9  UNK A   1      10.897  -7.191   6.759  1.00  0.27     0.256 C 
ATOM     17  N4  UNK A   1      11.966  -7.465   6.410  1.00 -0.27    -0.162 NA
ENDBRANCH  14  15
ENDBRANCH  12  13
ENDBRANCH   6  11
ENDBRANCH   4   6
ENDBRANCH   2   4
TORSDOF 7
ENDMDL
MODEL 8
REMARK VINA RESULT:      -3.8      9.567     11.405
REMARK  7 active torsions:
REMARK  status: ('A' for Active; 'I' for Inactive)
REMARK    1  A    between atoms: O3_3  and  N3_6 
REMARK    2  A    between atoms: N2_5  and  C4_11 
REMARK    3  A    between atoms: C1_8  and  C3_10 
REMARK    4  A    between atoms: C1_8  and  C2_9 
REMARK    5  A    between atoms: C1_8  and  C5_12 
REMARK    6  A    between atoms: C2_9  and  C7_14 
REMARK    7  A    between atoms: C3_10  and  CA_15 
ROOT
ATOM      1  N1  UNK A   1       9.296  12.530   8.364  1.00 -0.64    -0.391 NA
ATOM      2  CA  UNK A   1       8.149  12.399   9.036  1.00  0.35     0.204 C 
ATOM      3  C8  UNK A   1      10.338  12.793   7.813  1.00  0.45     0.196 C 
ENDROOT
BRANCH   2   4
ATOM      4  C3  UNK A   1       7.338  11.164   8.750  1.00  0.31     0.243 C 
ATOM      5  O1  UNK A   1       7.822  10.216   8.185  1.00 -0.37    -0.282 OA
BRANCH   4   6
ATOM      6  C1  UNK A   1       5.876  11.252   9.032  1.00 -0.35     0.126 C 
BRANCH   6   7
ATOM      7  C2  UNK A   1       4.970  10.881   8.134  1.00  0.46    -0.045 C 
BRANCH   7   8
ATOM      8  C7  UNK A   1       4.081  10.567   7.299  1.00 -0.58    -0.013 C 
ATOM      9  C6  UNK A   1       3.173  10.240   6.432  1.00  0.63     0.284 C 
ATOM     10  O2  UNK A   1       2.353   9.944   5.678  1.00 -0.18    -0.273 OA
ENDBRANCH   7   8
ENDBRANCH   6   7
BRANCH   6  11
ATOM     11  C5  UNK A   1       5.516  11.783  10.267  1.00  0.13    -0.027 C 
ATOM     12  C4  UNK A   1       5.207  12.222  11.363  1.00 -0.10     0.066 C 
BRANCH  12  13
ATOM     13  N2  UNK A   1       4.869  12.834  12.505  1.00 -0.01    -0.071 NA
ATOM     14  N3  UNK A   1       5.480  13.490  13.311  1.00  0.10     0.002 NA
BRANCH  14  15
ATOM     15  O3  UNK A   1       6.881  13.691  13.034  1.00 -0.20    -0.114 OA
ATOM     16  C9  UNK A   1       7.611  13.130  13.975  1.00  0.27     0.256 C 
ATOM     17  N4  UNK A   1       8.333  12.662  14.749  1.00 -0.27    -0.162 NA
ENDBRANCH  14  15
ENDBRANCH  12  13
ENDBRANCH   6  11
ENDBRANCH   4   6
ENDBRANCH   2   4
TORSDOF 7
ENDMDL
MODEL 9
REMARK VINA RESULT:      -3.8      4.357      5.844
REMARK  7 active torsions:
REMARK  status: ('A' for Active; 'I' for Inactive)
REMARK    1  A    between atoms: O3_3  and  N3_6 
REMARK    2  A    between atoms: N2_5  and  C4_11 
REMARK    3  A    between atoms: C1_8  and  C3_10 
REMARK    4  A    between atoms: C1_8  and  C2_9 
REMARK    5  A    between atoms: C1_8  and  C5_12 
REMARK    6  A    between atoms: C2_9  and  C7_14 
REMARK    7  A    between atoms: C3_10  and  CA_15 
ROOT
ATOM      1  N1  UNK A   1       1.768   0.562   5.266  1.00 -0.64    -0.391 NA
ATOM      2  CA  UNK A   1       2.598   1.546   5.622  1.00  0.35     0.204 C 
ATOM      3  C8  UNK A   1       0.914  -0.216   4.914  1.00  0.45     0.196 C 
ENDROOT
BRANCH   2   4
ATOM      4  C3  UNK A   1       3.877   1.137   6.301  1.00  0.31     0.243 C 
ATOM      5  O1  UNK A   1       4.162  -0.024   6.447  1.00 -0.37    -0.282 OA
BRANCH   4   6
ATOM      6  C1  UNK A   1       4.666   2.230   6.940  1.00 -0.35     0.126 C 
BRANCH   6   7
ATOM      7  C2  UNK A   1       5.980   2.328   6.772  1.00  0.46    -0.045 C 
BRANCH   7   8
ATOM      8  C7  UNK A   1       7.219   2.467   6.590  1.00 -0.58    -0.013 C 
ATOM      9  C6  UNK A   1       8.496   2.600   6.400  1.00  0.63     0.284 C 
ATOM     10  O2  UNK A   1       9.626   2.735   6.220  1.00 -0.18    -0.273 OA
ENDBRANCH   7   8
ENDBRANCH   6   7
BRANCH   6  11
ATOM     11  C5  UNK A   1       3.957   3.111   7.751  1.00  0.13    -0.027 C 
ATOM     12  C4  UNK A   1       3.314   3.884   8.441  1.00 -0.10     0.066 C 
BRANCH  12  13
ATOM     13  N2  UNK A   1       2.699   4.701   9.306  1.00 -0.01    -0.071 NA
ATOM     14  N3  UNK A   1       2.743   4.832  10.503  1.00  0.10     0.002 NA
BRANCH  14  15
ATOM     15  O3  UNK A   1       3.635   3.944  11.206  1.00 -0.20    -0.114 OA
ATOM     16  C9  UNK A   1       3.898   4.424  12.404  1.00  0.27     0.256 C 
ATOM     17  N4  UNK A   1       4.179   4.763  13.474  1.00 -0.27    -0.162 NA
ENDBRANCH  14  15
ENDBRANCH  12  13
ENDBRANCH   6  11
ENDBRANCH   4   6
ENDBRANCH   2   4
TORSDOF 7
ENDMDL
