REMARK  7 active torsions:
REMARK  status: ('A' for Active; 'I' for Inactive)
REMARK    1  A    between atoms: O3_3  and  N3_6 
REMARK    2  A    between atoms: N2_5  and  C4_11 
REMARK    3  A    between atoms: C1_8  and  C3_10 
REMARK    4  A    between atoms: C1_8  and  C2_9 
REMARK    5  A    between atoms: C1_8  and  C5_12 
REMARK    6  A    between atoms: C2_9  and  C7_14 
REMARK    7  A    between atoms: C3_10  and  CA_15 
ROOT
ATOM      1  N1  UNK A   1       4.702   0.195  -0.454  1.00 -0.64    -0.391 NA
ATOM      2  CA  UNK A   1       3.620  -0.396  -0.967  1.00  0.35     0.204 C 
ATOM      3  C8  UNK A   1       5.748   0.704  -0.128  1.00  0.45     0.196 C 
ENDROOT
BRANCH   2   4
ATOM      4  C3  UNK A   1       2.509  -0.719  -0.005  1.00  0.31     0.243 C 
ATOM      5  O1  UNK A   1       2.417  -1.809   0.500  1.00 -0.37    -0.282 OA
BRANCH   4   6
ATOM      6  C1  UNK A   1       1.438   0.310   0.139  1.00 -0.35     0.126 C 
BRANCH   6   7
ATOM      7  C2  UNK A   1       1.707   1.609   0.067  1.00  0.46    -0.045 C 
BRANCH   7   8
ATOM      8  C7  UNK A   1       2.013   2.829  -0.003  1.00 -0.58    -0.013 C 
ATOM      9  C6  UNK A   1       2.320   4.088  -0.068  1.00  0.63     0.284 C 
ATOM     10  O2  UNK A   1       2.614   5.201  -0.126  1.00 -0.18    -0.273 OA
ENDBRANCH   7   8
ENDBRANCH   6   7
BRANCH   6  11
ATOM     11  C5  UNK A   1       0.155  -0.165   0.393  1.00  0.13    -0.027 C 
ATOM     12  C4  UNK A   1      -0.962  -0.608   0.604  1.00 -0.10     0.066 C 
BRANCH  12  13
ATOM     13  N2  UNK A   1      -2.209  -0.979   0.920  1.00 -0.01    -0.071 NA
ATOM     14  N3  UNK A   1      -2.893  -1.929   0.635  1.00  0.10     0.002 NA
BRANCH  14  15
ATOM     15  O3  UNK A   1      -2.286  -2.911  -0.229  1.00 -0.20    -0.114 OA
ATOM     16  C9  UNK A   1      -3.152  -3.863  -0.508  1.00  0.27     0.256 C 
ATOM     17  N4  UNK A   1      -3.845  -4.738  -0.814  1.00 -0.27    -0.162 NA
ENDBRANCH  14  15
ENDBRANCH  12  13
ENDBRANCH   6  11
ENDBRANCH   4   6
ENDBRANCH   2   4
TORSDOF 7
