MODEL 1
REMARK VINA RESULT:      -2.6      0.000      0.000
REMARK  17 active torsions:
REMARK  status: ('A' for Active; 'I' for Inactive)
REMARK    1  A    between atoms: C1_1  and  O16_44 
REMARK    2  A    between atoms: C1_1  and  C2_2 
REMARK    3  A    between atoms: C2_2  and  C3_3 
REMARK    4  A    between atoms: C8_8  and  N_30 
REMARK    5  A    between atoms: C9_9  and  O15_42 
REMARK    6  A    between atoms: C11_15  and  C12_16 
REMARK       I    between atoms: C13_17  and  N_30 
REMARK    7  A    between atoms: C15_19  and  O12_38 
REMARK    8  A    between atoms: C15_19  and  O10_36 
REMARK    9  A    between atoms: C16_20  and  C17_21 
REMARK   10  A    between atoms: C17_21  and  C18_22 
REMARK   11  A    between atoms: C18_22  and  C19_23 
REMARK   12  A    between atoms: C19_23  and  O12_38 
REMARK   13  A    between atoms: C24_28  and  O10_36 
REMARK   14  A    between atoms: C25_29  and  C32_53 
REMARK   15  A    between atoms: C26_41  and  O15_42 
REMARK   16  A    between atoms: C27_43  and  O16_44 
REMARK   17  A    between atoms: C30_49  and  C31_51 
ROOT
HETATM    1  C4  HET A   1      12.955  13.456   0.351  1.00  0.46     0.246 C 
HETATM    2  C5  HET A   1      12.716  12.820   1.418  1.00 -0.78    -0.118 C 
HETATM    3  C6  HET A   1      12.489  12.284   2.765  1.00  0.01     0.079 C 
HETATM    4  O4  HET A   1      13.632  12.920  -0.692  1.00 -0.68    -0.206 OA
ENDROOT
TORSDOF 17
ENDMDL
MODEL 2
REMARK VINA RESULT:      -2.5     10.584     11.206
REMARK  17 active torsions:
REMARK  status: ('A' for Active; 'I' for Inactive)
REMARK    1  A    between atoms: C1_1  and  O16_44 
REMARK    2  A    between atoms: C1_1  and  C2_2 
REMARK    3  A    between atoms: C2_2  and  C3_3 
REMARK    4  A    between atoms: C8_8  and  N_30 
REMARK    5  A    between atoms: C9_9  and  O15_42 
REMARK    6  A    between atoms: C11_15  and  C12_16 
REMARK       I    between atoms: C13_17  and  N_30 
REMARK    7  A    between atoms: C15_19  and  O12_38 
REMARK    8  A    between atoms: C15_19  and  O10_36 
REMARK    9  A    between atoms: C16_20  and  C17_21 
REMARK   10  A    between atoms: C17_21  and  C18_22 
REMARK   11  A    between atoms: C18_22  and  C19_23 
REMARK   12  A    between atoms: C19_23  and  O12_38 
REMARK   13  A    between atoms: C24_28  and  O10_36 
REMARK   14  A    between atoms: C25_29  and  C32_53 
REMARK   15  A    between atoms: C26_41  and  O15_42 
REMARK   16  A    between atoms: C27_43  and  O16_44 
REMARK   17  A    between atoms: C30_49  and  C31_51 
ROOT
HETATM    1  C4  HET A   1      11.154   3.520   5.168  1.00  0.46     0.246 C 
HETATM    2  C5  HET A   1      10.136   2.986   5.696  1.00 -0.78    -0.118 C 
HETATM    3  C6  HET A   1       8.891   2.588   6.364  1.00  0.01     0.079 C 
HETATM    4  O4  HET A   1      12.400   2.999   5.274  1.00 -0.68    -0.206 OA
ENDROOT
TORSDOF 17
ENDMDL
MODEL 3
REMARK VINA RESULT:      -2.4     11.506     12.211
REMARK  17 active torsions:
REMARK  status: ('A' for Active; 'I' for Inactive)
REMARK    1  A    between atoms: C1_1  and  O16_44 
REMARK    2  A    between atoms: C1_1  and  C2_2 
REMARK    3  A    between atoms: C2_2  and  C3_3 
REMARK    4  A    between atoms: C8_8  and  N_30 
REMARK    5  A    between atoms: C9_9  and  O15_42 
REMARK    6  A    between atoms: C11_15  and  C12_16 
REMARK       I    between atoms: C13_17  and  N_30 
REMARK    7  A    between atoms: C15_19  and  O12_38 
REMARK    8  A    between atoms: C15_19  and  O10_36 
REMARK    9  A    between atoms: C16_20  and  C17_21 
REMARK   10  A    between atoms: C17_21  and  C18_22 
REMARK   11  A    between atoms: C18_22  and  C19_23 
REMARK   12  A    between atoms: C19_23  and  O12_38 
REMARK   13  A    between atoms: C24_28  and  O10_36 
REMARK   14  A    between atoms: C25_29  and  C32_53 
REMARK   15  A    between atoms: C26_41  and  O15_42 
REMARK   16  A    between atoms: C27_43  and  O16_44 
REMARK   17  A    between atoms: C30_49  and  C31_51 
ROOT
HETATM    1  C4  HET A   1       8.739   2.537   6.777  1.00  0.46     0.246 C 
HETATM    2  C5  HET A   1       9.659   2.806   5.952  1.00 -0.78    -0.118 C 
HETATM    3  C6  HET A   1      10.822   3.241   5.170  1.00  0.01     0.079 C 
HETATM    4  O4  HET A   1       7.427   2.519   6.441  1.00 -0.68    -0.206 OA
ENDROOT
TORSDOF 17
ENDMDL
MODEL 4
REMARK VINA RESULT:      -2.4     11.034     11.083
REMARK  17 active torsions:
REMARK  status: ('A' for Active; 'I' for Inactive)
REMARK    1  A    between atoms: C1_1  and  O16_44 
REMARK    2  A    between atoms: C1_1  and  C2_2 
REMARK    3  A    between atoms: C2_2  and  C3_3 
REMARK    4  A    between atoms: C8_8  and  N_30 
REMARK    5  A    between atoms: C9_9  and  O15_42 
REMARK    6  A    between atoms: C11_15  and  C12_16 
REMARK       I    between atoms: C13_17  and  N_30 
REMARK    7  A    between atoms: C15_19  and  O12_38 
REMARK    8  A    between atoms: C15_19  and  O10_36 
REMARK    9  A    between atoms: C16_20  and  C17_21 
REMARK   10  A    between atoms: C17_21  and  C18_22 
REMARK   11  A    between atoms: C18_22  and  C19_23 
REMARK   12  A    between atoms: C19_23  and  O12_38 
REMARK   13  A    between atoms: C24_28  and  O10_36 
REMARK   14  A    between atoms: C25_29  and  C32_53 
REMARK   15  A    between atoms: C26_41  and  O15_42 
REMARK   16  A    between atoms: C27_43  and  O16_44 
REMARK   17  A    between atoms: C30_49  and  C31_51 
ROOT
HETATM    1  C4  HET A   1      13.474   3.325   5.891  1.00  0.46     0.246 C 
HETATM    2  C5  HET A   1      12.277   3.253   5.491  1.00 -0.78    -0.118 C 
HETATM    3  C6  HET A   1      10.846   3.343   5.179  1.00  0.01     0.079 C 
HETATM    4  O4  HET A   1      14.244   2.235   6.122  1.00 -0.68    -0.206 OA
ENDROOT
TORSDOF 17
ENDMDL
MODEL 5
REMARK VINA RESULT:      -2.4     12.159     12.502
REMARK  17 active torsions:
REMARK  status: ('A' for Active; 'I' for Inactive)
REMARK    1  A    between atoms: C1_1  and  O16_44 
REMARK    2  A    between atoms: C1_1  and  C2_2 
REMARK    3  A    between atoms: C2_2  and  C3_3 
REMARK    4  A    between atoms: C8_8  and  N_30 
REMARK    5  A    between atoms: C9_9  and  O15_42 
REMARK    6  A    between atoms: C11_15  and  C12_16 
REMARK       I    between atoms: C13_17  and  N_30 
REMARK    7  A    between atoms: C15_19  and  O12_38 
REMARK    8  A    between atoms: C15_19  and  O10_36 
REMARK    9  A    between atoms: C16_20  and  C17_21 
REMARK   10  A    between atoms: C17_21  and  C18_22 
REMARK   11  A    between atoms: C18_22  and  C19_23 
REMARK   12  A    between atoms: C19_23  and  O12_38 
REMARK   13  A    between atoms: C24_28  and  O10_36 
REMARK   14  A    between atoms: C25_29  and  C32_53 
REMARK   15  A    between atoms: C26_41  and  O15_42 
REMARK   16  A    between atoms: C27_43  and  O16_44 
REMARK   17  A    between atoms: C30_49  and  C31_51 
ROOT
HETATM    1  C4  HET A   1       9.144   2.593   6.552  1.00  0.46     0.246 C 
HETATM    2  C5  HET A   1       7.884   2.702   6.550  1.00 -0.78    -0.118 C 
HETATM    3  C6  HET A   1       6.426   2.659   6.711  1.00  0.01     0.079 C 
HETATM    4  O4  HET A   1       9.891   2.633   5.423  1.00 -0.68    -0.206 OA
ENDROOT
TORSDOF 17
ENDMDL
MODEL 6
REMARK VINA RESULT:      -2.4     21.871     21.949
REMARK  17 active torsions:
REMARK  status: ('A' for Active; 'I' for Inactive)
REMARK    1  A    between atoms: C1_1  and  O16_44 
REMARK    2  A    between atoms: C1_1  and  C2_2 
REMARK    3  A    between atoms: C2_2  and  C3_3 
REMARK    4  A    between atoms: C8_8  and  N_30 
REMARK    5  A    between atoms: C9_9  and  O15_42 
REMARK    6  A    between atoms: C11_15  and  C12_16 
REMARK       I    between atoms: C13_17  and  N_30 
REMARK    7  A    between atoms: C15_19  and  O12_38 
REMARK    8  A    between atoms: C15_19  and  O10_36 
REMARK    9  A    between atoms: C16_20  and  C17_21 
REMARK   10  A    between atoms: C17_21  and  C18_22 
REMARK   11  A    between atoms: C18_22  and  C19_23 
REMARK   12  A    between atoms: C19_23  and  O12_38 
REMARK   13  A    between atoms: C24_28  and  O10_36 
REMARK   14  A    between atoms: C25_29  and  C32_53 
REMARK   15  A    between atoms: C26_41  and  O15_42 
REMARK   16  A    between atoms: C27_43  and  O16_44 
REMARK   17  A    between atoms: C30_49  and  C31_51 
ROOT
HETATM    1  C4  HET A   1       3.124  -4.789  -6.746  1.00  0.46     0.246 C 
HETATM    2  C5  HET A   1       2.696  -5.520  -5.807  1.00 -0.78    -0.118 C 
HETATM    3  C6  HET A   1       2.263  -6.548  -4.854  1.00  0.01     0.079 C 
HETATM    4  O4  HET A   1       2.490  -3.663  -7.154  1.00 -0.68    -0.206 OA
ENDROOT
TORSDOF 17
ENDMDL
MODEL 7
REMARK VINA RESULT:      -2.3     11.140     11.488
REMARK  17 active torsions:
REMARK  status: ('A' for Active; 'I' for Inactive)
REMARK    1  A    between atoms: C1_1  and  O16_44 
REMARK    2  A    between atoms: C1_1  and  C2_2 
REMARK    3  A    between atoms: C2_2  and  C3_3 
REMARK    4  A    between atoms: C8_8  and  N_30 
REMARK    5  A    between atoms: C9_9  and  O15_42 
REMARK    6  A    between atoms: C11_15  and  C12_16 
REMARK       I    between atoms: C13_17  and  N_30 
REMARK    7  A    between atoms: C15_19  and  O12_38 
REMARK    8  A    between atoms: C15_19  and  O10_36 
REMARK    9  A    between atoms: C16_20  and  C17_21 
REMARK   10  A    between atoms: C17_21  and  C18_22 
REMARK   11  A    between atoms: C18_22  and  C19_23 
REMARK   12  A    between atoms: C19_23  and  O12_38 
REMARK   13  A    between atoms: C24_28  and  O10_36 
REMARK   14  A    between atoms: C25_29  and  C32_53 
REMARK   15  A    between atoms: C26_41  and  O15_42 
REMARK   16  A    between atoms: C27_43  and  O16_44 
REMARK   17  A    between atoms: C30_49  and  C31_51 
ROOT
HETATM    1  C4  HET A   1       9.678   4.660   7.912  1.00  0.46     0.246 C 
HETATM    2  C5  HET A   1       9.380   3.733   7.106  1.00 -0.78    -0.118 C 
HETATM    3  C6  HET A   1       9.260   2.595   6.187  1.00  0.01     0.079 C 
HETATM    4  O4  HET A   1       9.204   5.924   7.795  1.00 -0.68    -0.206 OA
ENDROOT
TORSDOF 17
ENDMDL
MODEL 8
REMARK VINA RESULT:      -2.2     12.500     12.989
REMARK  17 active torsions:
REMARK  status: ('A' for Active; 'I' for Inactive)
REMARK    1  A    between atoms: C1_1  and  O16_44 
REMARK    2  A    between atoms: C1_1  and  C2_2 
REMARK    3  A    between atoms: C2_2  and  C3_3 
REMARK    4  A    between atoms: C8_8  and  N_30 
REMARK    5  A    between atoms: C9_9  and  O15_42 
REMARK    6  A    between atoms: C11_15  and  C12_16 
REMARK       I    between atoms: C13_17  and  N_30 
REMARK    7  A    between atoms: C15_19  and  O12_38 
REMARK    8  A    between atoms: C15_19  and  O10_36 
REMARK    9  A    between atoms: C16_20  and  C17_21 
REMARK   10  A    between atoms: C17_21  and  C18_22 
REMARK   11  A    between atoms: C18_22  and  C19_23 
REMARK   12  A    between atoms: C19_23  and  O12_38 
REMARK   13  A    between atoms: C24_28  and  O10_36 
REMARK   14  A    between atoms: C25_29  and  C32_53 
REMARK   15  A    between atoms: C26_41  and  O15_42 
REMARK   16  A    between atoms: C27_43  and  O16_44 
REMARK   17  A    between atoms: C30_49  and  C31_51 
ROOT
HETATM    1  C4  HET A   1       6.709   2.660   6.830  1.00  0.46     0.246 C 
HETATM    2  C5  HET A   1       7.919   2.606   6.466  1.00 -0.78    -0.118 C 
HETATM    3  C6  HET A   1       9.364   2.684   6.226  1.00  0.01     0.079 C 
HETATM    4  O4  HET A   1       5.678   2.767   5.958  1.00 -0.68    -0.206 OA
ENDROOT
TORSDOF 17
ENDMDL
MODEL 9
REMARK VINA RESULT:      -2.2     10.690     10.871
REMARK  17 active torsions:
REMARK  status: ('A' for Active; 'I' for Inactive)
REMARK    1  A    between atoms: C1_1  and  O16_44 
REMARK    2  A    between atoms: C1_1  and  C2_2 
REMARK    3  A    between atoms: C2_2  and  C3_3 
REMARK    4  A    between atoms: C8_8  and  N_30 
REMARK    5  A    between atoms: C9_9  and  O15_42 
REMARK    6  A    between atoms: C11_15  and  C12_16 
REMARK       I    between atoms: C13_17  and  N_30 
REMARK    7  A    between atoms: C15_19  and  O12_38 
REMARK    8  A    between atoms: C15_19  and  O10_36 
REMARK    9  A    between atoms: C16_20  and  C17_21 
REMARK   10  A    between atoms: C17_21  and  C18_22 
REMARK   11  A    between atoms: C18_22  and  C19_23 
REMARK   12  A    between atoms: C19_23  and  O12_38 
REMARK   13  A    between atoms: C24_28  and  O10_36 
REMARK   14  A    between atoms: C25_29  and  C32_53 
REMARK   15  A    between atoms: C26_41  and  O15_42 
REMARK   16  A    between atoms: C27_43  and  O16_44 
REMARK   17  A    between atoms: C30_49  and  C31_51 
ROOT
HETATM    1  C4  HET A   1      10.669   3.417   5.465  1.00  0.46     0.246 C 
HETATM    2  C5  HET A   1      11.130   4.169   6.371  1.00 -0.78    -0.118 C 
HETATM    3  C6  HET A   1      11.876   4.993   7.329  1.00  0.01     0.079 C 
HETATM    4  O4  HET A   1       9.670   2.527   5.680  1.00 -0.68    -0.206 OA
ENDROOT
TORSDOF 17
ENDMDL
