MODEL 1
REMARK VINA RESULT:      -4.0      0.000      0.000
REMARK  4 active torsions:
REMARK  status: ('A' for Active; 'I' for Inactive)
REMARK    1  A    between atoms: N1_2  and  C1_8 
REMARK    2  A    between atoms: N3_4  and  C10_17 
REMARK    3  A    between atoms: N4_5  and  C10_17 
REMARK    4  A    between atoms: C4_11  and  C7_14 
ROOT
HETATM    1  O   HET A   1       1.138   7.593   6.787  1.00  0.13    -0.283 OA
HETATM    2  C3  HET A   1       1.934   8.206   7.309  1.00  0.54     0.239 C 
HETATM    3  C4  HET A   1       2.903   8.938   7.980  1.00 -0.47     0.099 C 
HETATM    4  C10 HET A   1       3.594   9.911   7.329  1.00  0.41     0.213 C 
ENDROOT
BRANCH   3   5
HETATM    5  C7  HET A   1       3.357   8.836   9.418  1.00  0.52     0.085 C 
HETATM    6  N2  HET A   1       3.376   7.737  10.204  1.00 -0.68    -0.297 N 
HETATM    7  C1  HET A   1       3.125   6.344  10.326  1.00  0.61     0.200 A 
HETATM    8  C9  HET A   1       3.867   7.876  11.659  1.00  0.74     0.147 A 
HETATM    9  C2  HET A   1       3.578   6.347  11.789  1.00 -0.19     0.077 A 
HETATM   10  C6  HET A   1       3.649   5.420  12.678  1.00 -0.50    -0.125 C 
HETATM   11  C8  HET A   1       3.751   4.512  13.657  1.00  0.71     0.081 C 
BRANCH   7  12
HETATM   12  N1  HET A   1       2.687   5.457   9.470  1.00 -0.75    -0.379 NA
HETATM   13  C5  HET A   1       2.536   4.468   8.722  1.00  0.82     0.198 C 
ENDBRANCH   7  12
ENDBRANCH   3   5
BRANCH   4  14
HETATM   14  N3  HET A   1       3.442  10.333   5.882  1.00 -0.16    -0.106 NA
HETATM   15  N5  HET A   1       4.459  10.047   5.272  1.00  0.17    -0.021 N 
ENDBRANCH   4  14
BRANCH   4  16
HETATM   16  N4  HET A   1       4.678  10.836   7.819  1.00 -0.08    -0.106 NA
HETATM   17  N6  HET A   1       4.173  11.885   8.185  1.00  0.14    -0.021 N 
ENDBRANCH   4  16
TORSDOF 4
ENDMDL
MODEL 2
REMARK VINA RESULT:      -3.9      8.584     11.765
REMARK  4 active torsions:
REMARK  status: ('A' for Active; 'I' for Inactive)
REMARK    1  A    between atoms: N1_2  and  C1_8 
REMARK    2  A    between atoms: N3_4  and  C10_17 
REMARK    3  A    between atoms: N4_5  and  C10_17 
REMARK    4  A    between atoms: C4_11  and  C7_14 
ROOT
HETATM    1  O   HET A   1       2.658  -3.951   7.676  1.00  0.13    -0.283 OA
HETATM    2  C3  HET A   1       3.550  -3.749   8.346  1.00  0.54     0.239 C 
HETATM    3  C4  HET A   1       4.642  -3.467   9.154  1.00 -0.47     0.099 C 
HETATM    4  C10 HET A   1       5.204  -4.450   9.906  1.00  0.41     0.213 C 
ENDROOT
BRANCH   3   5
HETATM    5  C7  HET A   1       5.370  -2.159   9.358  1.00  0.52     0.085 C 
HETATM    6  N2  HET A   1       5.341  -1.063   8.567  1.00 -0.68    -0.297 N 
HETATM    7  C1  HET A   1       4.828  -0.440   7.398  1.00  0.61     0.200 A 
HETATM    8  C9  HET A   1       6.188   0.162   8.967  1.00  0.74     0.147 A 
HETATM    9  C2  HET A   1       5.629   0.836   7.675  1.00 -0.19     0.077 A 
HETATM   10  C6  HET A   1       5.735   1.949   7.040  1.00 -0.50    -0.125 C 
HETATM   11  C8  HET A   1       5.899   3.134   6.437  1.00  0.71     0.081 C 
BRANCH   7  12
HETATM   12  N1  HET A   1       3.986  -0.853   6.486  1.00 -0.75    -0.379 NA
HETATM   13  C5  HET A   1       3.375  -1.094   5.423  1.00  0.82     0.198 C 
ENDBRANCH   7  12
ENDBRANCH   3   5
BRANCH   4  14
HETATM   14  N3  HET A   1       4.778  -5.901   9.989  1.00 -0.16    -0.106 NA
HETATM   15  N5  HET A   1       5.523  -6.578   9.300  1.00  0.17    -0.021 N 
ENDBRANCH   4  14
BRANCH   4  16
HETATM   16  N4  HET A   1       6.376  -4.407  10.852  1.00 -0.08    -0.106 NA
HETATM   17  N6  HET A   1       5.969  -4.500  11.999  1.00  0.14    -0.021 N 
ENDBRANCH   4  16
TORSDOF 4
ENDMDL
MODEL 3
REMARK VINA RESULT:      -3.9      3.932      6.044
REMARK  4 active torsions:
REMARK  status: ('A' for Active; 'I' for Inactive)
REMARK    1  A    between atoms: N1_2  and  C1_8 
REMARK    2  A    between atoms: N3_4  and  C10_17 
REMARK    3  A    between atoms: N4_5  and  C10_17 
REMARK    4  A    between atoms: C4_11  and  C7_14 
ROOT
HETATM    1  O   HET A   1       5.641   9.433  12.032  1.00  0.13    -0.283 OA
HETATM    2  C3  HET A   1       5.934  10.049  11.127  1.00  0.54     0.239 C 
HETATM    3  C4  HET A   1       6.276  10.779   9.998  1.00 -0.47     0.099 C 
HETATM    4  C10 HET A   1       7.001  11.923  10.121  1.00  0.41     0.213 C 
ENDROOT
BRANCH   3   5
HETATM    5  C7  HET A   1       5.962  10.502   8.546  1.00  0.52     0.085 C 
HETATM    6  N2  HET A   1       4.750  10.286   7.988  1.00 -0.68    -0.297 N 
HETATM    7  C1  HET A   1       3.344  10.189   8.171  1.00  0.61     0.200 A 
HETATM    8  C9  HET A   1       4.672  10.002   6.475  1.00  0.74     0.147 A 
HETATM    9  C2  HET A   1       3.129   9.886   6.685  1.00 -0.19     0.077 A 
HETATM   10  C6  HET A   1       2.072   9.643   5.993  1.00 -0.50    -0.125 C 
HETATM   11  C8  HET A   1       1.022   9.382   5.205  1.00  0.71     0.081 C 
BRANCH   7  12
HETATM   12  N1  HET A   1       2.590  10.330   9.230  1.00 -0.75    -0.379 NA
HETATM   13  C5  HET A   1       1.929  10.767  10.196  1.00  0.82     0.198 C 
ENDBRANCH   7  12
ENDBRANCH   3   5
BRANCH   4  14
HETATM   14  N3  HET A   1       7.518  12.549  11.399  1.00 -0.16    -0.106 NA
HETATM   15  N5  HET A   1       6.817  13.504  11.691  1.00  0.17    -0.021 N 
ENDBRANCH   4  14
BRANCH   4  16
HETATM   16  N4  HET A   1       7.495  12.884   9.070  1.00 -0.08    -0.106 NA
HETATM   17  N6  HET A   1       8.691  12.710   8.901  1.00  0.14    -0.021 N 
ENDBRANCH   4  16
TORSDOF 4
ENDMDL
MODEL 4
REMARK VINA RESULT:      -3.8      7.287      9.133
REMARK  4 active torsions:
REMARK  status: ('A' for Active; 'I' for Inactive)
REMARK    1  A    between atoms: N1_2  and  C1_8 
REMARK    2  A    between atoms: N3_4  and  C10_17 
REMARK    3  A    between atoms: N4_5  and  C10_17 
REMARK    4  A    between atoms: C4_11  and  C7_14 
ROOT
HETATM    1  O   HET A   1       2.126  -0.347   6.192  1.00  0.13    -0.283 OA
HETATM    2  C3  HET A   1       3.166  -0.226   6.627  1.00  0.54     0.239 C 
HETATM    3  C4  HET A   1       4.440  -0.116   7.162  1.00 -0.47     0.099 C 
HETATM    4  C10 HET A   1       5.006   1.110   7.325  1.00  0.41     0.213 C 
ENDROOT
BRANCH   3   5
HETATM    5  C7  HET A   1       5.380  -1.202   7.633  1.00  0.52     0.085 C 
HETATM    6  N2  HET A   1       5.278  -1.957   8.750  1.00 -0.68    -0.297 N 
HETATM    7  C1  HET A   1       4.540  -2.275   9.921  1.00  0.61     0.200 A 
HETATM    8  C9  HET A   1       6.375  -3.001   9.039  1.00  0.74     0.147 A 
HETATM    9  C2  HET A   1       5.564  -3.338  10.331  1.00 -0.19     0.077 A 
HETATM   10  C6  HET A   1       5.639  -4.126  11.344  1.00 -0.50    -0.125 C 
HETATM   11  C8  HET A   1       5.789  -4.976  12.367  1.00  0.71     0.081 C 
BRANCH   7  12
HETATM   12  N1  HET A   1       3.415  -1.807  10.398  1.00 -0.75    -0.379 NA
HETATM   13  C5  HET A   1       2.363  -1.168  10.610  1.00  0.82     0.198 C 
ENDBRANCH   7  12
ENDBRANCH   3   5
BRANCH   4  14
HETATM   14  N3  HET A   1       4.399   2.454   6.982  1.00 -0.16    -0.106 NA
HETATM   15  N5  HET A   1       3.901   2.938   7.986  1.00  0.17    -0.021 N 
ENDBRANCH   4  14
BRANCH   4  16
HETATM   16  N4  HET A   1       6.355   1.498   7.875  1.00 -0.08    -0.106 NA
HETATM   17  N6  HET A   1       6.996   2.059   7.001  1.00  0.14    -0.021 N 
ENDBRANCH   4  16
TORSDOF 4
ENDMDL
MODEL 5
REMARK VINA RESULT:      -3.8      9.461     11.526
REMARK  4 active torsions:
REMARK  status: ('A' for Active; 'I' for Inactive)
REMARK    1  A    between atoms: N1_2  and  C1_8 
REMARK    2  A    between atoms: N3_4  and  C10_17 
REMARK    3  A    between atoms: N4_5  and  C10_17 
REMARK    4  A    between atoms: C4_11  and  C7_14 
ROOT
HETATM    1  O   HET A   1       5.587  -3.822   4.938  1.00  0.13    -0.283 OA
HETATM    2  C3  HET A   1       5.198  -3.071   5.693  1.00  0.54     0.239 C 
HETATM    3  C4  HET A   1       4.712  -2.130   6.588  1.00 -0.47     0.099 C 
HETATM    4  C10 HET A   1       4.823  -2.343   7.927  1.00  0.41     0.213 C 
ENDROOT
BRANCH   3   5
HETATM    5  C7  HET A   1       4.030  -0.809   6.315  1.00  0.52     0.085 C 
HETATM    6  N2  HET A   1       3.240  -0.487   5.266  1.00 -0.68    -0.297 N 
HETATM    7  C1  HET A   1       2.620  -0.904   4.058  1.00  0.61     0.200 A 
HETATM    8  C9  HET A   1       2.664   0.941   5.185  1.00  0.74     0.147 A 
HETATM    9  C2  HET A   1       1.994   0.480   3.852  1.00 -0.19     0.077 A 
HETATM   10  C6  HET A   1       1.244   0.964   2.927  1.00 -0.50    -0.125 C 
HETATM   11  C8  HET A   1       0.465   1.541   2.004  1.00  0.71     0.081 C 
BRANCH   7  12
HETATM   12  N1  HET A   1       2.617  -2.049   3.428  1.00 -0.75    -0.379 NA
HETATM   13  C5  HET A   1       2.513  -3.251   3.100  1.00  0.82     0.198 C 
ENDBRANCH   7  12
ENDBRANCH   3   5
BRANCH   4  14
HETATM   14  N3  HET A   1       5.444  -3.539   8.618  1.00 -0.16    -0.106 NA
HETATM   15  N5  HET A   1       6.478  -3.193   9.166  1.00  0.17    -0.021 N 
ENDBRANCH   4  14
BRANCH   4  16
HETATM   16  N4  HET A   1       4.384  -1.493   9.091  1.00 -0.08    -0.106 NA
HETATM   17  N6  HET A   1       3.341  -1.939   9.541  1.00  0.14    -0.021 N 
ENDBRANCH   4  16
TORSDOF 4
ENDMDL
MODEL 6
REMARK VINA RESULT:      -3.8      8.300     11.601
REMARK  4 active torsions:
REMARK  status: ('A' for Active; 'I' for Inactive)
REMARK    1  A    between atoms: N1_2  and  C1_8 
REMARK    2  A    between atoms: N3_4  and  C10_17 
REMARK    3  A    between atoms: N4_5  and  C10_17 
REMARK    4  A    between atoms: C4_11  and  C7_14 
ROOT
HETATM    1  O   HET A   1       1.251  -3.051   9.516  1.00  0.13    -0.283 OA
HETATM    2  C3  HET A   1       2.285  -3.135   9.974  1.00  0.54     0.239 C 
HETATM    3  C4  HET A   1       3.562  -3.215  10.507  1.00 -0.47     0.099 C 
HETATM    4  C10 HET A   1       3.795  -3.984  11.604  1.00  0.41     0.213 C 
ENDROOT
BRANCH   3   5
HETATM    5  C7  HET A   1       4.837  -2.548  10.046  1.00  0.52     0.085 C 
HETATM    6  N2  HET A   1       4.965  -1.381   9.376  1.00 -0.68    -0.297 N 
HETATM    7  C1  HET A   1       4.324  -0.255   8.794  1.00  0.61     0.200 A 
HETATM    8  C9  HET A   1       6.379  -0.901   8.988  1.00  0.74     0.147 A 
HETATM    9  C2  HET A   1       5.667   0.329   8.341  1.00 -0.19     0.077 A 
HETATM   10  C6  HET A   1       5.975   1.396   7.693  1.00 -0.50    -0.125 C 
HETATM   11  C8  HET A   1       6.376   2.485   7.024  1.00  0.71     0.081 C 
BRANCH   7  12
HETATM   12  N1  HET A   1       3.066   0.093   8.720  1.00 -0.75    -0.379 NA
HETATM   13  C5  HET A   1       1.892   0.322   8.357  1.00  0.82     0.198 C 
ENDBRANCH   7  12
ENDBRANCH   3   5
BRANCH   4  14
HETATM   14  N3  HET A   1       2.790  -4.818  12.371  1.00 -0.16    -0.106 NA
HETATM   15  N5  HET A   1       2.388  -4.180  13.330  1.00  0.17    -0.021 N 
ENDBRANCH   4  14
BRANCH   4  16
HETATM   16  N4  HET A   1       5.070  -4.238  12.366  1.00 -0.08    -0.106 NA
HETATM   17  N6  HET A   1       5.412  -5.398  12.197  1.00  0.14    -0.021 N 
ENDBRANCH   4  16
TORSDOF 4
ENDMDL
MODEL 7
REMARK VINA RESULT:      -3.7      9.655     12.508
REMARK  4 active torsions:
REMARK  status: ('A' for Active; 'I' for Inactive)
REMARK    1  A    between atoms: N1_2  and  C1_8 
REMARK    2  A    between atoms: N3_4  and  C10_17 
REMARK    3  A    between atoms: N4_5  and  C10_17 
REMARK    4  A    between atoms: C4_11  and  C7_14 
ROOT
HETATM    1  O   HET A   1       3.759   0.007   6.387  1.00  0.13    -0.283 OA
HETATM    2  C3  HET A   1       4.281  -0.943   6.720  1.00  0.54     0.239 C 
HETATM    3  C4  HET A   1       4.909  -2.121   7.096  1.00 -0.47     0.099 C 
HETATM    4  C10 HET A   1       5.538  -2.203   8.298  1.00  0.41     0.213 C 
ENDROOT
BRANCH   3   5
HETATM    5  C7  HET A   1       5.022  -3.428   6.346  1.00  0.52     0.085 C 
HETATM    6  N2  HET A   1       4.483  -3.744   5.147  1.00 -0.68    -0.297 N 
HETATM    7  C1  HET A   1       3.708  -3.327   4.033  1.00  0.61     0.200 A 
HETATM    8  C9  HET A   1       4.718  -5.159   4.581  1.00  0.74     0.147 A 
HETATM    9  C2  HET A   1       3.855  -4.698   3.363  1.00 -0.19     0.077 A 
HETATM   10  C6  HET A   1       3.409  -5.175   2.256  1.00 -0.50    -0.125 C 
HETATM   11  C8  HET A   1       2.982  -5.745   1.122  1.00  0.71     0.081 C 
BRANCH   7  12
HETATM   12  N1  HET A   1       3.130  -2.189   3.747  1.00 -0.75    -0.379 NA
HETATM   13  C5  HET A   1       2.318  -1.268   3.518  1.00  0.82     0.198 C 
ENDBRANCH   7  12
ENDBRANCH   3   5
BRANCH   4  14
HETATM   14  N3  HET A   1       5.655  -1.119   9.349  1.00 -0.16    -0.106 NA
HETATM   15  N5  HET A   1       6.520  -0.326   9.014  1.00  0.17    -0.021 N 
ENDBRANCH   4  14
BRANCH   4  16
HETATM   16  N4  HET A   1       6.283  -3.348   8.935  1.00 -0.08    -0.106 NA
HETATM   17  N6  HET A   1       5.837  -3.542  10.054  1.00  0.14    -0.021 N 
ENDBRANCH   4  16
TORSDOF 4
ENDMDL
MODEL 8
REMARK VINA RESULT:      -3.6      7.552      9.662
REMARK  4 active torsions:
REMARK  status: ('A' for Active; 'I' for Inactive)
REMARK    1  A    between atoms: N1_2  and  C1_8 
REMARK    2  A    between atoms: N3_4  and  C10_17 
REMARK    3  A    between atoms: N4_5  and  C10_17 
REMARK    4  A    between atoms: C4_11  and  C7_14 
ROOT
HETATM    1  O   HET A   1       3.002  -3.016   9.677  1.00  0.13    -0.283 OA
HETATM    2  C3  HET A   1       2.799  -1.950  10.003  1.00  0.54     0.239 C 
HETATM    3  C4  HET A   1       2.569  -0.633  10.372  1.00 -0.47     0.099 C 
HETATM    4  C10 HET A   1       1.892  -0.356  11.518  1.00  0.41     0.213 C 
ENDROOT
BRANCH   3   5
HETATM    5  C7  HET A   1       2.972   0.643   9.671  1.00  0.52     0.085 C 
HETATM    6  N2  HET A   1       4.117   0.892   8.997  1.00 -0.68    -0.297 N 
HETATM    7  C1  HET A   1       5.371   0.404   8.540  1.00  0.61     0.200 A 
HETATM    8  C9  HET A   1       4.321   2.287   8.373  1.00  0.74     0.147 A 
HETATM    9  C2  HET A   1       5.703   1.748   7.884  1.00 -0.19     0.077 A 
HETATM   10  C6  HET A   1       6.727   2.164   7.228  1.00 -0.50    -0.125 C 
HETATM   11  C8  HET A   1       7.756   2.671   6.537  1.00  0.71     0.081 C 
BRANCH   7  12
HETATM   12  N1  HET A   1       5.951  -0.762   8.661  1.00 -0.75    -0.379 NA
HETATM   13  C5  HET A   1       6.299  -1.911   9.007  1.00  0.82     0.198 C 
ENDBRANCH   7  12
ENDBRANCH   3   5
BRANCH   4  14
HETATM   14  N3  HET A   1       1.319  -1.347  12.509  1.00 -0.16    -0.106 NA
HETATM   15  N5  HET A   1       0.170  -1.610  12.196  1.00  0.17    -0.021 N 
ENDBRANCH   4  14
BRANCH   4  16
HETATM   16  N4  HET A   1       1.516   0.967  12.136  1.00 -0.08    -0.106 NA
HETATM   17  N6  HET A   1       2.031   1.053  13.239  1.00  0.14    -0.021 N 
ENDBRANCH   4  16
TORSDOF 4
ENDMDL
MODEL 9
REMARK VINA RESULT:      -3.6      3.371      5.347
REMARK  4 active torsions:
REMARK  status: ('A' for Active; 'I' for Inactive)
REMARK    1  A    between atoms: N1_2  and  C1_8 
REMARK    2  A    between atoms: N3_4  and  C10_17 
REMARK    3  A    between atoms: N4_5  and  C10_17 
REMARK    4  A    between atoms: C4_11  and  C7_14 
ROOT
HETATM    1  O   HET A   1       3.383   6.996  10.405  1.00  0.13    -0.283 OA
HETATM    2  C3  HET A   1       3.298   7.912   9.743  1.00  0.54     0.239 C 
HETATM    3  C4  HET A   1       3.214   9.052   8.957  1.00 -0.47     0.099 C 
HETATM    4  C10 HET A   1       2.492   9.033   7.805  1.00  0.41     0.213 C 
ENDROOT
BRANCH   3   5
HETATM    5  C7  HET A   1       3.831  10.414   9.175  1.00  0.52     0.085 C 
HETATM    6  N2  HET A   1       5.128  10.768   9.033  1.00 -0.68    -0.297 N 
HETATM    7  C1  HET A   1       6.449  10.373   8.693  1.00  0.61     0.200 A 
HETATM    8  C9  HET A   1       5.535  12.225   9.332  1.00  0.74     0.147 A 
HETATM    9  C2  HET A   1       6.987  11.781   8.968  1.00 -0.19     0.077 A 
HETATM   10  C6  HET A   1       8.167  12.288   8.902  1.00 -0.50    -0.125 C 
HETATM   11  C8  HET A   1       9.363  12.888   8.860  1.00  0.71     0.081 C 
BRANCH   7  12
HETATM   12  N1  HET A   1       6.944   9.230   8.295  1.00 -0.75    -0.379 NA
HETATM   13  C5  HET A   1       7.468   8.296   7.651  1.00  0.82     0.198 C 
ENDBRANCH   7  12
ENDBRANCH   3   5
BRANCH   4  14
HETATM   14  N3  HET A   1       1.717   7.868   7.226  1.00 -0.16    -0.106 NA
HETATM   15  N5  HET A   1       0.533   8.002   7.488  1.00  0.17    -0.021 N 
ENDBRANCH   4  14
BRANCH   4  16
HETATM   16  N4  HET A   1       2.245  10.118   6.789  1.00 -0.08    -0.106 NA
HETATM   17  N6  HET A   1       2.992   9.951   5.837  1.00  0.14    -0.021 N 
ENDBRANCH   4  16
TORSDOF 4
ENDMDL
