MODEL 1
REMARK VINA RESULT:      -2.3      0.000      0.000
REMARK  2 active torsions:
REMARK  status: ('A' for Active; 'I' for Inactive)
REMARK    1  A    between atoms: C2_2  and  C7_10 
REMARK    2  A    between atoms: N1_11  and  N2_12 
REMARK       I    between atoms: N2_12  and  C_13 
ROOT
HETATM    1  N2  UNK A   2      -3.120   4.904  -0.823  1.00 -0.46    -0.033 NA
ATOM      2  C   SER A   1      -2.698   3.786  -1.494  1.00  0.55     0.376 C 
ATOM      3  CA  SER A   1      -3.755   3.301  -2.390  1.00  0.10     0.166 C 
ATOM      4  O   SER A   1      -1.626   3.214  -1.429  1.00 -0.52    -0.251 OA
ATOM      5  N   SER A   1      -4.560   2.885  -3.104  1.00 -0.27    -0.186 NA
ENDROOT
BRANCH   1   6
HETATM    6  N1  UNK A   2      -2.313   5.465   0.032  1.00  0.07    -0.249 NA
HETATM    7  C7  UNK A   2      -1.760   6.135   0.800  1.00  0.25     0.090 C 
BRANCH   7   8
HETATM    8  C2  UNK A   2      -1.096   6.916   1.714  1.00 -0.41     0.110 A 
HETATM    9  C3  UNK A   2      -1.552   7.427   2.909  1.00  0.15     0.017 A 
HETATM   10  C4  UNK A   2      -1.054   8.139   3.793  1.00 -0.39     0.046 A 
HETATM   11  C5  UNK A   2       0.188   8.741   3.973  1.00  0.45     0.237 A 
HETATM   12  O1  UNK A   2       0.701   9.446   4.792  1.00 -0.43    -0.283 OA
HETATM   13  C6  UNK A   2       0.976   8.251   2.658  1.00  0.26     0.273 A 
HETATM   14  O2  UNK A   2       2.119   8.568   2.531  1.00 -0.34    -0.280 OA
HETATM   15  C1  UNK A   2       0.287   7.356   1.538  1.00  0.43     0.247 A 
HETATM   16  O3  UNK A   2       0.974   7.091   0.584  1.00 -0.43    -0.282 OA
ENDBRANCH   7   8
ENDBRANCH   1   6
TORSDOF 2
ENDMDL
MODEL 2
REMARK VINA RESULT:      -2.3      2.355      7.560
REMARK  2 active torsions:
REMARK  status: ('A' for Active; 'I' for Inactive)
REMARK    1  A    between atoms: C2_2  and  C7_10 
REMARK    2  A    between atoms: N1_11  and  N2_12 
REMARK       I    between atoms: N2_12  and  C_13 
ROOT
HETATM    1  N2  UNK A   2      -1.265   6.275   1.267  1.00 -0.46    -0.033 NA
ATOM      2  C   SER A   1      -0.068   6.937   1.185  1.00  0.55     0.376 C 
ATOM      3  CA  SER A   1       0.362   7.376   2.518  1.00  0.10     0.166 C 
ATOM      4  O   SER A   1       0.613   7.169   0.204  1.00 -0.52    -0.251 OA
ATOM      5  N   SER A   1       0.736   7.742   3.547  1.00 -0.27    -0.186 NA
ENDROOT
BRANCH   1   6
HETATM    6  N1  UNK A   2      -1.809   5.825   0.172  1.00  0.07    -0.249 NA
HETATM    7  C7  UNK A   2      -2.313   5.222  -0.680  1.00  0.25     0.090 C 
BRANCH   7   8
HETATM    8  C2  UNK A   2      -2.915   4.521  -1.697  1.00 -0.41     0.110 A 
HETATM    9  C3  UNK A   2      -4.135   4.742  -2.296  1.00  0.15     0.017 A 
HETATM   10  C4  UNK A   2      -4.773   4.179  -3.198  1.00 -0.39     0.046 A 
HETATM   11  C5  UNK A   2      -4.540   3.071  -4.006  1.00  0.45     0.237 A 
HETATM   12  O1  UNK A   2      -5.129   2.485  -4.868  1.00 -0.43    -0.283 OA
HETATM   13  C6  UNK A   2      -3.080   2.609  -3.510  1.00  0.26     0.273 A 
HETATM   14  O2  UNK A   2      -2.562   1.684  -4.055  1.00 -0.34    -0.280 OA
HETATM   15  C1  UNK A   2      -2.311   3.350  -2.331  1.00  0.43     0.247 A 
HETATM   16  O3  UNK A   2      -1.242   2.882  -2.028  1.00 -0.43    -0.282 OA
ENDBRANCH   7   8
ENDBRANCH   1   6
TORSDOF 2
ENDMDL
MODEL 3
REMARK VINA RESULT:      -2.3      5.392      7.501
REMARK  2 active torsions:
REMARK  status: ('A' for Active; 'I' for Inactive)
REMARK    1  A    between atoms: C2_2  and  C7_10 
REMARK    2  A    between atoms: N1_11  and  N2_12 
REMARK       I    between atoms: N2_12  and  C_13 
ROOT
HETATM    1  N2  UNK A   2       0.405   7.143   0.120  1.00 -0.46    -0.033 NA
ATOM      2  C   SER A   1       0.750   7.440   1.414  1.00  0.55     0.376 C 
ATOM      3  CA  SER A   1      -0.380   7.184   2.314  1.00  0.10     0.166 C 
ATOM      4  O   SER A   1       1.811   7.852   1.847  1.00 -0.52    -0.251 OA
ATOM      5  N   SER A   1      -1.245   7.000   3.056  1.00 -0.27    -0.186 NA
ENDROOT
BRANCH   1   6
HETATM    6  N1  UNK A   2       1.285   7.326  -0.822  1.00  0.07    -0.249 NA
HETATM    7  C7  UNK A   2       2.028   7.258  -1.710  1.00  0.25     0.090 C 
BRANCH   7   8
HETATM    8  C2  UNK A   2       2.907   7.195  -2.764  1.00 -0.41     0.110 A 
HETATM    9  C3  UNK A   2       2.985   8.004  -3.875  1.00  0.15     0.017 A 
HETATM   10  C4  UNK A   2       3.716   8.034  -4.876  1.00 -0.39     0.046 A 
HETATM   11  C5  UNK A   2       4.784   7.262  -5.323  1.00  0.45     0.237 A 
HETATM   12  O1  UNK A   2       5.499   7.242  -6.282  1.00 -0.43    -0.283 OA
HETATM   13  C6  UNK A   2       4.935   6.197  -4.126  1.00  0.26     0.273 A 
HETATM   14  O2  UNK A   2       5.820   5.399  -4.186  1.00 -0.34    -0.280 OA
HETATM   15  C1  UNK A   2       3.957   6.183  -2.872  1.00  0.43     0.247 A 
HETATM   16  O3  UNK A   2       4.153   5.310  -2.065  1.00 -0.43    -0.282 OA
ENDBRANCH   7   8
ENDBRANCH   1   6
TORSDOF 2
ENDMDL
MODEL 4
REMARK VINA RESULT:      -2.2      4.218      4.823
REMARK  2 active torsions:
REMARK  status: ('A' for Active; 'I' for Inactive)
REMARK    1  A    between atoms: C2_2  and  C7_10 
REMARK    2  A    between atoms: N1_11  and  N2_12 
REMARK       I    between atoms: N2_12  and  C_13 
ROOT
HETATM    1  N2  UNK A   2       2.076   5.940  -2.789  1.00 -0.46    -0.033 NA
ATOM      2  C   SER A   1       3.297   5.316  -2.804  1.00  0.55     0.376 C 
ATOM      3  CA  SER A   1       3.402   4.432  -3.972  1.00  0.10     0.166 C 
ATOM      4  O   SER A   1       4.220   5.421  -2.018  1.00 -0.52    -0.251 OA
ATOM      5  N   SER A   1       3.524   3.723  -4.874  1.00 -0.27    -0.186 NA
ENDROOT
BRANCH   1   6
HETATM    6  N1  UNK A   2       1.801   6.754  -1.811  1.00  0.07    -0.249 NA
HETATM    7  C7  UNK A   2       1.505   7.634  -1.115  1.00  0.25     0.090 C 
BRANCH   7   8
HETATM    8  C2  UNK A   2       1.152   8.664  -0.278  1.00 -0.41     0.110 A 
HETATM    9  C3  UNK A   2       0.702   9.925  -0.600  1.00  0.15     0.017 A 
HETATM   10  C4  UNK A   2       0.369  10.921   0.059  1.00 -0.39     0.046 A 
HETATM   11  C5  UNK A   2       0.305  11.210   1.418  1.00  0.45     0.237 A 
HETATM   12  O1  UNK A   2       0.012  12.155   2.092  1.00 -0.43    -0.283 OA
HETATM   13  C6  UNK A   2       0.776   9.815   2.067  1.00  0.26     0.273 A 
HETATM   14  O2  UNK A   2       0.785   9.717   3.256  1.00 -0.34    -0.280 OA
HETATM   15  C1  UNK A   2       1.216   8.571   1.180  1.00  0.43     0.247 A 
HETATM   16  O3  UNK A   2       1.585   7.598   1.788  1.00 -0.43    -0.282 OA
ENDBRANCH   7   8
ENDBRANCH   1   6
TORSDOF 2
ENDMDL
MODEL 5
REMARK VINA RESULT:      -2.2      8.456     10.023
REMARK  2 active torsions:
REMARK  status: ('A' for Active; 'I' for Inactive)
REMARK    1  A    between atoms: C2_2  and  C7_10 
REMARK    2  A    between atoms: N1_11  and  N2_12 
REMARK       I    between atoms: N2_12  and  C_13 
ROOT
HETATM    1  N2  UNK A   2       5.682   6.145   1.854  1.00 -0.46    -0.033 NA
ATOM      2  C   SER A   1       6.275   6.733   0.766  1.00  0.55     0.376 C 
ATOM      3  CA  SER A   1       5.828   8.124   0.634  1.00  0.10     0.166 C 
ATOM      4  O   SER A   1       7.068   6.256  -0.023  1.00 -0.52    -0.251 OA
ATOM      5  N   SER A   1       5.499   9.221   0.491  1.00 -0.27    -0.186 NA
ENDROOT
BRANCH   1   6
HETATM    6  N1  UNK A   2       5.952   4.898   2.118  1.00  0.07    -0.249 NA
HETATM    7  C7  UNK A   2       6.199   3.864   2.579  1.00  0.25     0.090 C 
BRANCH   7   8
HETATM    8  C2  UNK A   2       6.487   2.630   3.111  1.00 -0.41     0.110 A 
HETATM    9  C3  UNK A   2       7.649   2.195   3.708  1.00  0.15     0.017 A 
HETATM   10  C4  UNK A   2       8.018   1.121   4.206  1.00 -0.39     0.046 A 
HETATM   11  C5  UNK A   2       7.423  -0.124   4.382  1.00  0.45     0.237 A 
HETATM   12  O1  UNK A   2       7.745  -1.184   4.835  1.00 -0.43    -0.283 OA
HETATM   13  C6  UNK A   2       5.958   0.128   3.764  1.00  0.26     0.273 A 
HETATM   14  O2  UNK A   2       5.165  -0.761   3.807  1.00 -0.34    -0.280 OA
HETATM   15  C1  UNK A   2       5.538   1.518   3.114  1.00  0.43     0.247 A 
HETATM   16  O3  UNK A   2       4.426   1.564   2.652  1.00 -0.43    -0.282 OA
ENDBRANCH   7   8
ENDBRANCH   1   6
TORSDOF 2
ENDMDL
MODEL 6
REMARK VINA RESULT:      -2.2      4.146      4.804
REMARK  2 active torsions:
REMARK  status: ('A' for Active; 'I' for Inactive)
REMARK    1  A    between atoms: C2_2  and  C7_10 
REMARK    2  A    between atoms: N1_11  and  N2_12 
REMARK       I    between atoms: N2_12  and  C_13 
ROOT
HETATM    1  N2  UNK A   2       2.521   6.673  -1.841  1.00 -0.46    -0.033 NA
ATOM      2  C   SER A   1       2.126   5.852  -2.866  1.00  0.55     0.376 C 
ATOM      3  CA  SER A   1       3.298   5.299  -3.555  1.00  0.10     0.166 C 
ATOM      4  O   SER A   1       1.000   5.559  -3.221  1.00 -0.52    -0.251 OA
ATOM      5  N   SER A   1       4.192   4.846  -4.127  1.00 -0.27    -0.186 NA
ENDROOT
BRANCH   1   6
HETATM    6  N1  UNK A   2       1.608   7.266  -1.126  1.00  0.07    -0.249 NA
HETATM    7  C7  UNK A   2       0.665   7.602  -0.542  1.00  0.25     0.090 C 
BRANCH   7   8
HETATM    8  C2  UNK A   2      -0.444   8.010   0.159  1.00 -0.41     0.110 A 
HETATM    9  C3  UNK A   2      -1.012   9.263   0.227  1.00  0.15     0.017 A 
HETATM   10  C4  UNK A   2      -1.987   9.741   0.824  1.00 -0.39     0.046 A 
HETATM   11  C5  UNK A   2      -2.944   9.225   1.692  1.00  0.45     0.237 A 
HETATM   12  O1  UNK A   2      -3.882   9.650   2.302  1.00 -0.43    -0.283 OA
HETATM   13  C6  UNK A   2      -2.511   7.677   1.767  1.00  0.26     0.273 A 
HETATM   14  O2  UNK A   2      -3.180   6.932   2.414  1.00 -0.34    -0.280 OA
HETATM   15  C1  UNK A   2      -1.235   7.114   1.001  1.00  0.43     0.247 A 
HETATM   16  O3  UNK A   2      -0.997   5.945   1.170  1.00 -0.43    -0.282 OA
ENDBRANCH   7   8
ENDBRANCH   1   6
TORSDOF 2
ENDMDL
MODEL 7
REMARK VINA RESULT:      -2.2      2.272      2.450
REMARK  2 active torsions:
REMARK  status: ('A' for Active; 'I' for Inactive)
REMARK    1  A    between atoms: C2_2  and  C7_10 
REMARK    2  A    between atoms: N1_11  and  N2_12 
REMARK       I    between atoms: N2_12  and  C_13 
ROOT
HETATM    1  N2  UNK A   2      -2.390   3.573  -0.946  1.00 -0.46    -0.033 NA
ATOM      2  C   SER A   1      -1.709   2.882  -1.915  1.00  0.55     0.376 C 
ATOM      3  CA  SER A   1      -2.175   1.492  -1.971  1.00  0.10     0.166 C 
ATOM      4  O   SER A   1      -0.839   3.278  -2.669  1.00 -0.52    -0.251 OA
ATOM      5  N   SER A   1      -2.510   0.390  -2.045  1.00 -0.27    -0.186 NA
ENDROOT
BRANCH   1   6
HETATM    6  N1  UNK A   2      -2.094   4.825  -0.744  1.00  0.07    -0.249 NA
HETATM    7  C7  UNK A   2      -1.931   5.903  -0.350  1.00  0.25     0.090 C 
BRANCH   7   8
HETATM    8  C2  UNK A   2      -1.725   7.184   0.104  1.00 -0.41     0.110 A 
HETATM    9  C3  UNK A   2      -2.617   8.230   0.179  1.00  0.15     0.017 A 
HETATM   10  C4  UNK A   2      -2.542   9.408   0.555  1.00 -0.39     0.046 A 
HETATM   11  C5  UNK A   2      -1.520  10.201   1.067  1.00  0.45     0.237 A 
HETATM   12  O1  UNK A   2      -1.397  11.338   1.421  1.00 -0.43    -0.283 OA
HETATM   13  C6  UNK A   2      -0.296   9.158   1.118  1.00  0.26     0.273 A 
HETATM   14  O2  UNK A   2       0.745   9.527   1.567  1.00 -0.34    -0.280 OA
HETATM   15  C1  UNK A   2      -0.435   7.659   0.602  1.00  0.43     0.247 A 
HETATM   16  O3  UNK A   2       0.566   6.992   0.659  1.00 -0.43    -0.282 OA
ENDBRANCH   7   8
ENDBRANCH   1   6
TORSDOF 2
ENDMDL
MODEL 8
REMARK VINA RESULT:      -2.2      4.013      6.244
REMARK  2 active torsions:
REMARK  status: ('A' for Active; 'I' for Inactive)
REMARK    1  A    between atoms: C2_2  and  C7_10 
REMARK    2  A    between atoms: N1_11  and  N2_12 
REMARK       I    between atoms: N2_12  and  C_13 
ROOT
HETATM    1  N2  UNK A   2       2.924   8.098   1.505  1.00 -0.46    -0.033 NA
ATOM      2  C   SER A   1       3.192   8.960   0.472  1.00  0.55     0.376 C 
ATOM      3  CA  SER A   1       4.625   9.269   0.427  1.00  0.10     0.166 C 
ATOM      4  O   SER A   1       2.424   9.442  -0.340  1.00 -0.52    -0.251 OA
ATOM      5  N   SER A   1       5.744   9.542   0.358  1.00 -0.27    -0.186 NA
ENDROOT
BRANCH   1   6
HETATM    6  N1  UNK A   2       1.693   7.724   1.707  1.00  0.07    -0.249 NA
HETATM    7  C7  UNK A   2       0.561   7.623   1.937  1.00  0.25     0.090 C 
BRANCH   7   8
HETATM    8  C2  UNK A   2      -0.780   7.487   2.200  1.00 -0.41     0.110 A 
HETATM    9  C3  UNK A   2      -1.550   8.145   3.134  1.00  0.15     0.017 A 
HETATM   10  C4  UNK A   2      -2.744   8.098   3.461  1.00 -0.39     0.046 A 
HETATM   11  C5  UNK A   2      -3.841   7.356   3.033  1.00  0.45     0.237 A 
HETATM   12  O1  UNK A   2      -4.997   7.264   3.330  1.00 -0.43    -0.283 OA
HETATM   13  C6  UNK A   2      -3.193   6.474   1.853  1.00  0.26     0.273 A 
HETATM   14  O2  UNK A   2      -3.905   5.744   1.234  1.00 -0.34    -0.280 OA
HETATM   15  C1  UNK A   2      -1.647   6.553   1.484  1.00  0.43     0.247 A 
HETATM   16  O3  UNK A   2      -1.280   5.812   0.608  1.00 -0.43    -0.282 OA
ENDBRANCH   7   8
ENDBRANCH   1   6
TORSDOF 2
ENDMDL
MODEL 9
REMARK VINA RESULT:      -2.2      3.880      4.359
REMARK  2 active torsions:
REMARK  status: ('A' for Active; 'I' for Inactive)
REMARK    1  A    between atoms: C2_2  and  C7_10 
REMARK    2  A    between atoms: N1_11  and  N2_12 
REMARK       I    between atoms: N2_12  and  C_13 
ROOT
HETATM    1  N2  UNK A   2       1.327   7.188  -0.738  1.00 -0.46    -0.033 NA
ATOM      2  C   SER A   1       0.699   7.685  -1.851  1.00  0.55     0.376 C 
ATOM      3  CA  SER A   1       1.536   7.481  -3.040  1.00  0.10     0.166 C 
ATOM      4  O   SER A   1      -0.389   8.223  -1.940  1.00 -0.52    -0.251 OA
ATOM      5  N   SER A   1       2.164   7.345  -3.999  1.00 -0.27    -0.186 NA
ENDROOT
BRANCH   1   6
HETATM    6  N1  UNK A   2       0.734   7.295   0.417  1.00  0.07    -0.249 NA
HETATM    7  C7  UNK A   2       0.420   7.333   1.532  1.00  0.25     0.090 C 
BRANCH   7   8
HETATM    8  C2  UNK A   2       0.035   7.387   2.850  1.00 -0.41     0.110 A 
HETATM    9  C3  UNK A   2       0.427   8.272   3.830  1.00  0.15     0.017 A 
HETATM   10  C4  UNK A   2       0.158   8.408   5.033  1.00 -0.39     0.046 A 
HETATM   11  C5  UNK A   2      -0.658   7.725   5.929  1.00  0.45     0.237 A 
HETATM   12  O1  UNK A   2      -0.930   7.807   7.092  1.00 -0.43    -0.283 OA
HETATM   13  C6  UNK A   2      -1.300   6.592   4.983  1.00  0.26     0.273 A 
HETATM   14  O2  UNK A   2      -2.103   5.848   5.455  1.00 -0.34    -0.280 OA
HETATM   15  C1  UNK A   2      -0.906   6.442   3.449  1.00  0.43     0.247 A 
HETATM   16  O3  UNK A   2      -1.427   5.529   2.862  1.00 -0.43    -0.282 OA
ENDBRANCH   7   8
ENDBRANCH   1   6
TORSDOF 2
ENDMDL
