REMARK  1 active torsions:
REMARK  status: ('A' for Active; 'I' for Inactive)
REMARK    1  A    between atoms: C9_9  and  C10_10 
ROOT
HETATM    1  C1  HET A   1      -4.592  -1.076  -0.000  1.00 -1.15     0.055 A 
HETATM    2  C2  HET A   1      -3.622  -2.050  -0.000  1.00  0.61     0.138 A 
HETATM    3  C3  HET A   1      -2.147  -1.647  -0.000  1.00 -0.55     0.090 A 
HETATM    4  C4  HET A   1      -1.992  -0.188   0.000  1.00  0.28     0.107 A 
HETATM    5  C5  HET A   1      -2.992   0.695   0.000  1.00 -0.87     0.052 A 
HETATM    6  C6  HET A   1      -4.374   0.289  -0.000  1.00  0.60     0.135 A 
HETATM    7  C7  HET A   1      -0.990  -2.429   0.000  1.00  0.45     0.240 A 
HETATM    8  C8  HET A   1       0.420  -1.731   0.000  1.00  0.28     0.256 A 
HETATM    9  C9  HET A   1       0.517  -0.345  -0.000  1.00 -0.11     0.135 A 
HETATM   10  O1  HET A   1      -0.680   0.400   0.000  1.00 -0.38    -0.304 OA
HETATM   11  O2  HET A   1      -0.938  -3.696   0.000  1.00 -0.91    -0.283 OA
HETATM   12  O5  HET A   1       1.411  -2.534   0.000  1.00 -0.91    -0.281 OA
HETATM   13  O6  HET A   1      -5.369   1.180   0.000  1.00 -1.17    -0.190 OA
HETATM   14  O7  HET A   1      -3.940  -3.315  -0.001  1.00 -1.06    -0.190 OA
ENDROOT
BRANCH   9  15
HETATM   15  C10 HET A   1       1.713   0.528   0.000  1.00  0.07    -0.007 A 
HETATM   16  C11 HET A   1       2.100   1.841   0.000  1.00 -0.11     0.055 A 
HETATM   17  C15 HET A   1       3.140   0.567  -0.000  1.00 -0.53     0.079 A 
HETATM   18  C12 HET A   1       2.853   2.977  -0.000  1.00 -0.84     0.008 A 
HETATM   19  C14 HET A   1       4.394   1.132  -0.000  1.00  0.24     0.137 A 
HETATM   20  O3  HET A   1       5.575   0.556  -0.000  1.00 -1.09    -0.192 OA
HETATM   21  C13 HET A   1       4.212   2.676   0.000  1.00  0.30     0.148 A 
HETATM   22  O4  HET A   1       5.217   3.532  -0.000  1.00 -1.13    -0.189 OA
ENDBRANCH   9  15
TORSDOF 1
