REMARK  0 active torsions:
REMARK  status: ('A' for Active; 'I' for Inactive)
ROOT
HETATM    1  O1  HET A   1       6.472   6.462   0.002  1.00 -0.05    -0.281 OA
HETATM    2  O2  HET A   1       3.106   7.486   0.002  1.00 -0.08    -0.279 OA
HETATM    3  O3  HET A   1       5.092   9.742  -0.002  1.00 -0.22    -0.281 OA
HETATM    4  O4  HET A   1       8.909   8.817  -0.002  1.00 -0.01    -0.281 OA
HETATM    5  N1  HET A   1       4.925   4.855   0.001  1.00 -0.54    -0.267 N 
HETATM    6  N2  HET A   1       5.276   2.581   0.001  1.00 -0.48    -0.232 NA
HETATM    7  N3  HET A   1       2.548   4.927   0.000  1.00 -0.22    -0.152 NA
HETATM    8  N4  HET A   1       0.133   4.251  -0.000  1.00 -0.03    -0.170 NA
HETATM    9  N5  HET A   1       2.225   0.861  -0.002  1.00  0.05    -0.190 NA
HETATM   10  C1  HET A   1       4.281   7.465   0.001  1.00  0.27     0.276 A 
HETATM   11  C2  HET A   1       5.172   6.165   0.001  1.00  0.38     0.210 A 
HETATM   12  C3  HET A   1       5.344   8.579  -0.001  1.00  0.40     0.264 A 
HETATM   13  C4  HET A   1       6.608   7.880   0.001  1.00 -0.39     0.186 A 
HETATM   14  C5  HET A   1       7.857   8.370  -0.000  1.00  0.55     0.262 C 
HETATM   15  C6  HET A   1       3.605   4.228   0.000  1.00  0.23     0.185 A 
HETATM   16  C7  HET A   1       6.009   3.790   0.001  1.00  0.67     0.239 A 
HETATM   17  C8  HET A   1       3.988   2.732   0.000  1.00  0.33     0.181 A 
HETATM   18  C9  HET A   1       3.008   1.711  -0.001  1.00 -0.01     0.123 C 
HETATM   19  C10 HET A   1       1.268   4.488  -0.001  1.00  0.15     0.208 C 
ENDROOT
TORSDOF 0
