REMARK  2 active torsions:
REMARK  status: ('A' for Active; 'I' for Inactive)
REMARK    1  A    between atoms: C1_6  and  N_3 
REMARK    2  A    between atoms: CA_16  and  C_17 
REMARK       I    between atoms: C_17  and  N_4 
ROOT
ATOM      1  O   GLY A   1       5.923   3.090  -0.000  1.00 -0.46    -0.255 OA
ATOM      2  C   GLY A   1       7.025   2.579   0.000  1.00  0.62     0.327 C 
ATOM      3  N   UNK A   2       8.201   3.252  -0.000  1.00 -0.51    -0.275 N 
ATOM      4  NZ  UNK A   2      10.344   0.274   0.003  1.00 -0.31    -0.190 NA
ATOM      5  CD  UNK A   2       9.582   2.701   0.001  1.00 -0.19     0.132 A 
ATOM      6  CA  UNK A   2       8.213   4.797  -0.001  1.00  0.34     0.137 A 
ATOM      7  CG  UNK A   2      10.299   3.868  -0.001  1.00  0.04     0.025 A 
ATOM      8  CB  UNK A   2       9.598   4.944  -0.001  1.00 -0.40     0.001 A 
ATOM      9  CE  UNK A   2       9.958   1.371   0.002  1.00  0.16     0.119 C 
ENDROOT
BRANCH   2  10
ATOM     10  CA  GLY A   1       7.020   1.094   0.000  1.00  0.05     0.120 C 
ATOM     11  N   GLY A   1       6.814  -0.035   0.000  1.00  0.16    -0.359 NA
BRANCH  11  12
ATOM     12  C1  UNK A   1       6.482  -1.361  -0.000  1.00 -0.33     0.127 A 
ATOM     13  C5  UNK A   1       7.536  -2.281   0.005  1.00  0.07     0.071 A 
ATOM     14  C2  UNK A   1       7.168  -3.748  -0.001  1.00  0.31     0.198 A 
ATOM     15  C8  UNK A   1       5.715  -4.008   0.003  1.00 -0.08     0.035 A 
ATOM     16  O   UNK A   1       7.979  -4.638  -0.009  1.00 -0.34    -0.286 OA
ATOM     17  C7  UNK A   1       4.792  -2.992   0.000  1.00 -0.05    -0.012 A 
ATOM     18  C4  UNK A   1       4.674  -5.060   0.002  1.00 -0.46     0.003 A 
ATOM     19  C3  UNK A   1       3.655  -3.960  -0.002  1.00 -0.46    -0.003 A 
ATOM     20  C6  UNK A   1       5.080  -1.595   0.000  1.00  0.03     0.086 A 
ATOM     21  C10 UNK A   1       2.360  -3.776  -0.004  1.00  0.40    -0.000 C 
ATOM     22  C9  UNK A   1       4.709  -6.369   0.002  1.00  0.41     0.000 C 
ENDBRANCH  11  12
ENDBRANCH   2  10
TORSDOF 2
