REMARK  Name = mopac/covid_residue.pdb
REMARK  7 active torsions:
REMARK  status: ('A' for Active; 'I' for Inactive)
REMARK    1  A    between atoms: C_2  and  C_20
REMARK    2  A    between atoms: N_3  and  C_4
REMARK    3  A    between atoms: C_6  and  O_8
REMARK    4  A    between atoms: C_9  and  O_11
REMARK    5  A    between atoms: C_12  and  C_18
REMARK    6  A    between atoms: C_15  and  O_17
REMARK    7  A    between atoms: C_18  and  O_19
REMARK                            x       y       z     vdW  Elec       q    Type
REMARK                         _______ _______ _______ _____ _____    ______ ____
ROOT
ATOM      1  C   UNL     1       1.233   2.027   0.370  0.00  0.00    +0.160 C 
ATOM      2  C   UNL     1       0.416   2.277   1.678  0.00  0.00    +0.270 C 
ATOM      3  O   UNL     1       1.286   2.805   2.657  0.00  0.00    -0.341 OA
ATOM      4  C   UNL     1       1.784   4.095   2.359  0.00  0.00    +0.178 C 
ATOM      5  C   UNL     1       2.652   4.016   1.078  0.00  0.00    +0.176 C 
ATOM      6  C   UNL     1       1.876   3.366  -0.082  0.00  0.00    +0.171 C 
ENDROOT
BRANCH   1   9
ATOM      7  O   UNL     1       2.456   0.607  -1.579  0.00  0.00    -0.276 OA
ATOM      8  C   UNL     1       2.867   0.398  -0.457  0.00  0.00    +0.210 C 
ATOM      9  N   UNL     1       2.276   1.042   0.621  0.00  0.00    -0.305 N 
ATOM     10  H   UNL     1       2.632   0.982   1.563  0.00  0.00    +0.149 HD
ATOM     11  C   UNL     1       4.008  -0.519  -0.131  0.00  0.00    +0.109 C 
ENDBRANCH   1   9
BRANCH   2  12
ATOM     12  O   UNL     1      -0.650   3.125   1.417  0.00  0.00    -0.365 OA
ATOM     13  H   UNL     1      -0.362   3.845   0.795  0.00  0.00    +0.213 HD
ENDBRANCH   2  12
BRANCH   5  14
ATOM     14  O   UNL     1       3.080   5.310   0.722  0.00  0.00    -0.387 OA
ATOM     15  H   UNL     1       2.325   5.844   0.376  0.00  0.00    +0.210 HD
ENDBRANCH   5  14
BRANCH   6  16
ATOM     16  O   UNL     1       0.833   4.281  -0.378  0.00  0.00    -0.387 OA
ATOM     17  H   UNL     1       0.477   4.150  -1.284  0.00  0.00    +0.210 HD
ENDBRANCH   6  16
BRANCH   4  18
ATOM     18  C   UNL     1       2.638   4.495   3.579  0.00  0.00    +0.190 C 
BRANCH  18  19
ATOM     19  O   UNL     1       3.238   5.751   3.344  0.00  0.00    -0.392 OA
ATOM     20  H   UNL     1       3.477   5.803   2.386  0.00  0.00    +0.210 HD
ENDBRANCH  18  19
ENDBRANCH   4  18
TORSDOF 6
